BEGIN Configuration File: meshconfig
// $Id $

// Copyright (c) 2007-2015, Trustees of The Leland Stanford Junior University
// All rights reserved.
//
// Redistribution and use in source and binary forms, with or without
// modification, are permitted provided that the following conditions are met:
//
// Redistributions of source code must retain the above copyright notice, this
// list of conditions and the following disclaimer.
// Redistributions in binary form must reproduce the above copyright notice,
// this list of conditions and the following disclaimer in the documentation
// and/or other materials provided with the distribution.
//
// THIS SOFTWARE IS PROVIDED BY THE COPYRIGHT HOLDERS AND CONTRIBUTORS "AS IS"
// AND ANY EXPRESS OR IMPLIED WARRANTIES, INCLUDING, BUT NOT LIMITED TO, THE
// IMPLIED WARRANTIES OF MERCHANTABILITY AND FITNESS FOR A PARTICULAR PURPOSE
// ARE DISCLAIMED. IN NO EVENT SHALL THE COPYRIGHT OWNER OR CONTRIBUTORS BE
// LIABLE FOR ANY DIRECT, INDIRECT, INCIDENTAL, SPECIAL, EXEMPLARY, OR
// CONSEQUENTIAL DAMAGES (INCLUDING, BUT NOT LIMITED TO, PROCUREMENT OF
// SUBSTITUTE GOODS OR SERVICES; LOSS OF USE, DATA, OR PROFITS; OR BUSINESS
// INTERRUPTION) HOWEVER CAUSED AND ON ANY THEORY OF LIABILITY, WHETHER IN
// CONTRACT, STRICT LIABILITY, OR TORT (INCLUDING NEGLIGENCE OR OTHERWISE)
// ARISING IN ANY WAY OUT OF THE USE OF THIS SOFTWARE, EVEN IF ADVISED OF THE
// POSSIBILITY OF SUCH DAMAGE.


//
// Flow control
//

num_vcs     = 1;
vc_buf_size = 2;

wait_for_tail_credit = 1;


vc_allocator = islip; 
sw_allocator = islip;
alloc_iters  = 1;

credit_delay   = 2;
routing_delay  = 0;
vc_alloc_delay = 1;
sw_alloc_delay = 1;
st_final_delay = 1;

input_speedup     = 1;
output_speedup    = 1;
internal_speedup  = 1.0;

//
// Traffic
//

sim_type = throughput;

warmup_periods = 3;

sample_period  = 1000;  

sim_count          = 1;



//topoogy

topology = mesh;
k  = 2;
n  = 2;
//
// Routing


routing_function = dor;

packet_size = 4;

use_read_write = 0;
arb_type = round_robin;
traffic       = uniform;

injection_rate = 0.2;

watch_out = -;
watch_file = my_file;;END Configuration File: meshconfig
3 | node1 | Enqueuing packet 0 at time 3.
3 | node1 | Enqueuing flit 0 (packet 0) at time 3.
3 | node1 | Enqueuing flit 1 (packet 0) at time 3.
3 | node1 | Enqueuing flit 2 (packet 0) at time 3.
3 | node1 | Enqueuing flit 3 (packet 0) at time 3.
3 | node3 | Enqueuing packet 1 at time 3.
3 | node3 | Enqueuing flit 4 (packet 1) at time 3.
3 | node3 | Enqueuing flit 5 (packet 1) at time 3.
3 | node3 | Enqueuing flit 6 (packet 1) at time 3.
3 | node3 | Enqueuing flit 7 (packet 1) at time 3.
3 | traffic_manager | Finding output VC for flit 0:
3 | traffic_manager |   Selected output VC 0.
3 | network_0/router_0_1 | Adding VC range [0,0] at output port 1 for flit 0 (input port 4, destination 0).
3 | node1 | Generating lookahead routing info for flit 0.
3 | node1 | Injecting flit 0 into subnet 0 at time 3 with priority 0.
3 | traffic_manager | Finding output VC for flit 4:
3 | traffic_manager |   Selected output VC 0.
3 | network_0/router_1_1 | Adding VC range [0,0] at output port 1 for flit 4 (input port 4, destination 2).
3 | node3 | Generating lookahead routing info for flit 4.
3 | node3 | Injecting flit 4 into subnet 0 at time 3 with priority 0.
4 | network_0/network_0_fchan_ingress1 | Beginning channel traversal for flit 0 with delay 1.
4 | network_0/network_0_fchan_ingress3 | Beginning channel traversal for flit 4 with delay 1.
4 | node1 | Injecting flit 1 into subnet 0 at time 4 with priority 0.
4 | node3 | Injecting flit 5 into subnet 0 at time 4 with priority 0.
4 | network_0/network_0_fchan_ingress1 | Completed channel traversal for flit 0.
4 | network_0/network_0_fchan_ingress3 | Completed channel traversal for flit 4.
5 | network_0/network_0_fchan_ingress1 | Beginning channel traversal for flit 1 with delay 1.
5 | network_0/network_0_fchan_ingress3 | Beginning channel traversal for flit 5 with delay 1.
5 | network_0/router_0_1 | Received flit 0 from channel at input 4.
5 | network_0/router_1_1 | Received flit 4 from channel at input 4.
5 | traffic_manager | Selected output VC 0 is full for flit 2.
5 | traffic_manager | Selected output VC 0 is full for flit 6.
5 | network_0/router_0_1 | Adding flit 0 to VC 0 at input 4 (state: idle, empty).
5 | network_0/router_0_1 | Using precomputed lookahead routing information for VC 0 at input 4 (front: 0).
5 | network_0/router_0_1/buf_4/vc_0 | Changing state from idle to vc_alloc.
5 | network_0/router_0_1 | Beginning VC allocation for VC 0 at input 4 (front: 0).
5 | network_0/router_0_1 |   Requesting VC 0 at output 1 (in_pri: 0, out_pri: 0).
5 | network_0/router_0_1/vc_allocator | Input requests = [ 4 -> [ 1@0 ]  ], output requests = [ 1 -> [ 4@0 ]  ].
grants: -1 4 -1 -1 -1 
aptrs: 0 0 0 0 0 
input match: -1 -1 -1 -1 1 
output match: -1 4 -1 -1 -1 
5 | network_0/router_0_1/vc_allocator | Input grants = [ 4 -> 1  ], output grants = [ 1 -> 4  ].
5 | network_0/router_0_1 | Assigning VC 0 at output 1 to VC 0 at input 4.
5 | network_0/router_0_1 | Completed VC allocation for VC 0 at input 4 (front: 0).
5 | network_0/router_0_1 |   Acquiring assigned VC 0 at output 1.
5 | network_0/router_0_1/buf_4/vc_0 | Changing state from vc_alloc to active.
5 | network_0/router_1_1 | Adding flit 4 to VC 0 at input 4 (state: idle, empty).
5 | network_0/router_1_1 | Using precomputed lookahead routing information for VC 0 at input 4 (front: 4).
5 | network_0/router_1_1/buf_4/vc_0 | Changing state from idle to vc_alloc.
5 | network_0/router_1_1 | Beginning VC allocation for VC 0 at input 4 (front: 4).
5 | network_0/router_1_1 |   Requesting VC 0 at output 1 (in_pri: 0, out_pri: 0).
5 | network_0/router_1_1/vc_allocator | Input requests = [ 4 -> [ 1@0 ]  ], output requests = [ 1 -> [ 4@0 ]  ].
grants: -1 4 -1 -1 -1 
aptrs: 0 0 0 0 0 
input match: -1 -1 -1 -1 1 
output match: -1 4 -1 -1 -1 
5 | network_0/router_1_1/vc_allocator | Input grants = [ 4 -> 1  ], output grants = [ 1 -> 4  ].
5 | network_0/router_1_1 | Assigning VC 0 at output 1 to VC 0 at input 4.
5 | network_0/router_1_1 | Completed VC allocation for VC 0 at input 4 (front: 4).
5 | network_0/router_1_1 |   Acquiring assigned VC 0 at output 1.
5 | network_0/router_1_1/buf_4/vc_0 | Changing state from vc_alloc to active.
5 | network_0/network_0_fchan_ingress1 | Completed channel traversal for flit 1.
5 | network_0/network_0_fchan_ingress3 | Completed channel traversal for flit 5.
6 | network_0/router_0_1 | Received flit 1 from channel at input 4.
6 | network_0/router_1_1 | Received flit 5 from channel at input 4.
6 | traffic_manager | Selected output VC 0 is full for flit 2.
6 | traffic_manager | Selected output VC 0 is full for flit 6.
6 | network_0/router_0_1 | Adding flit 1 to VC 0 at input 4 (state: active, front: 0).
6 | network_0/router_0_1 | Beginning switch allocation for VC 0 at input 4 (front: 0).
6 | network_0/router_0_1 |   Requesting output 1.0 (non-spec, pri: 0).
6 | network_0/router_0_1/sw_allocator | Input requests = [ 4 -> [ 1@0 ]  ], output requests = [ 1 -> [ 4@0 ]  ].
grants: -1 4 -1 -1 -1 
aptrs: 0 0 0 0 0 
input match: -1 -1 -1 -1 1 
output match: -1 4 -1 -1 -1 
6 | network_0/router_0_1/sw_allocator | Input grants = [ 4 -> 1  ], output grants = [ 1 -> 4  ].
6 | network_0/router_0_1 | Assigning output 1.0 to VC 0 at input 4.0.
6 | network_0/router_0_1 | Completed switch allocation for VC 0 at input 4 (front: 0).
6 | network_0/router_0_1 |   Scheduling switch connection from input 4.0 to output 1.0.
6 | network_0/router_0_1 | Updating lookahead routing information for flit 0.
6 | network_0/router_0_0 | Adding VC range [0,0] at output port 4 for flit 0 (input port 0, destination 0).
6 | network_0/router_1_1 | Adding flit 5 to VC 0 at input 4 (state: active, front: 4).
6 | network_0/router_1_1 | Beginning switch allocation for VC 0 at input 4 (front: 4).
6 | network_0/router_1_1 |   Requesting output 1.0 (non-spec, pri: 0).
6 | network_0/router_1_1/sw_allocator | Input requests = [ 4 -> [ 1@0 ]  ], output requests = [ 1 -> [ 4@0 ]  ].
grants: -1 4 -1 -1 -1 
aptrs: 0 0 0 0 0 
input match: -1 -1 -1 -1 1 
output match: -1 4 -1 -1 -1 
6 | network_0/router_1_1/sw_allocator | Input grants = [ 4 -> 1  ], output grants = [ 1 -> 4  ].
6 | network_0/router_1_1 | Assigning output 1.0 to VC 0 at input 4.0.
6 | network_0/router_1_1 | Completed switch allocation for VC 0 at input 4 (front: 4).
6 | network_0/router_1_1 |   Scheduling switch connection from input 4.0 to output 1.0.
6 | network_0/router_1_1 | Updating lookahead routing information for flit 4.
6 | network_0/router_1_0 | Adding VC range [0,0] at output port 4 for flit 4 (input port 0, destination 2).
7 | traffic_manager | Selected output VC 0 is full for flit 2.
7 | traffic_manager | Selected output VC 0 is full for flit 6.
7 | network_0/router_0_1 | Beginning switch allocation for VC 0 at input 4 (front: 1).
7 | network_0/router_0_1 |   Requesting output 1.0 (non-spec, pri: 0).
7 | network_0/router_0_1/sw_allocator | Input requests = [ 4 -> [ 1@0 ]  ], output requests = [ 1 -> [ 4@0 ]  ].
grants: -1 4 -1 -1 -1 
aptrs: 0 0 0 0 2 
input match: -1 -1 -1 -1 1 
output match: -1 4 -1 -1 -1 
7 | network_0/router_0_1/sw_allocator | Input grants = [ 4 -> 1  ], output grants = [ 1 -> 4  ].
7 | network_0/router_0_1 | Assigning output 1.0 to VC 0 at input 4.0.
7 | network_0/router_0_1 | Beginning crossbar traversal for flit 0 from input 4.0 to output 1.0.
7 | network_0/router_0_1 | Completed switch allocation for VC 0 at input 4 (front: 1).
7 | network_0/router_0_1 |   Scheduling switch connection from input 4.0 to output 1.0.
7 | network_0/router_0_1 | Completed crossbar traversal for flit 0 from input 4.0 to output 1.0.
7 | network_0/router_0_1 | Buffering flit 0 at output 1.
7 | network_0/router_1_1 | Beginning switch allocation for VC 0 at input 4 (front: 5).
7 | network_0/router_1_1 |   Requesting output 1.0 (non-spec, pri: 0).
7 | network_0/router_1_1/sw_allocator | Input requests = [ 4 -> [ 1@0 ]  ], output requests = [ 1 -> [ 4@0 ]  ].
grants: -1 4 -1 -1 -1 
aptrs: 0 0 0 0 2 
input match: -1 -1 -1 -1 1 
output match: -1 4 -1 -1 -1 
7 | network_0/router_1_1/sw_allocator | Input grants = [ 4 -> 1  ], output grants = [ 1 -> 4  ].
7 | network_0/router_1_1 | Assigning output 1.0 to VC 0 at input 4.0.
7 | network_0/router_1_1 | Beginning crossbar traversal for flit 4 from input 4.0 to output 1.0.
7 | network_0/router_1_1 | Completed switch allocation for VC 0 at input 4 (front: 5).
7 | network_0/router_1_1 |   Scheduling switch connection from input 4.0 to output 1.0.
7 | network_0/router_1_1 | Completed crossbar traversal for flit 4 from input 4.0 to output 1.0.
7 | network_0/router_1_1 | Buffering flit 4 at output 1.
7 | network_0/router_0_1 | Sending flit 0 to channel at output 1.
7 | network_0/router_1_1 | Sending flit 4 to channel at output 1.
8 | network_0/network_0_fchan_5 | Beginning channel traversal for flit 0 with delay 1.
8 | network_0/network_0_fchan_13 | Beginning channel traversal for flit 4 with delay 1.
8 | node1 | Injecting flit 2 into subnet 0 at time 8 with priority 0.
8 | node3 | Injecting flit 6 into subnet 0 at time 8 with priority 0.
8 | network_0/router_0_1 | Beginning crossbar traversal for flit 1 from input 4.0 to output 1.0.
8 | network_0/router_0_1 | Completed crossbar traversal for flit 1 from input 4.0 to output 1.0.
8 | network_0/router_0_1 | Buffering flit 1 at output 1.
8 | network_0/router_1_1 | Beginning crossbar traversal for flit 5 from input 4.0 to output 1.0.
8 | network_0/router_1_1 | Completed crossbar traversal for flit 5 from input 4.0 to output 1.0.
8 | network_0/router_1_1 | Buffering flit 5 at output 1.
8 | network_0/network_0_fchan_5 | Completed channel traversal for flit 0.
8 | network_0/network_0_fchan_13 | Completed channel traversal for flit 4.
8 | network_0/router_0_1 | Sending flit 1 to channel at output 1.
8 | network_0/router_1_1 | Sending flit 5 to channel at output 1.
9 | network_0/network_0_fchan_ingress1 | Beginning channel traversal for flit 2 with delay 1.
9 | network_0/network_0_fchan_ingress3 | Beginning channel traversal for flit 6 with delay 1.
9 | network_0/network_0_fchan_5 | Beginning channel traversal for flit 1 with delay 1.
9 | network_0/network_0_fchan_13 | Beginning channel traversal for flit 5 with delay 1.
9 | network_0/router_0_0 | Received flit 0 from channel at input 0.
9 | network_0/router_1_0 | Received flit 4 from channel at input 0.
9 | node1 | Injecting flit 3 into subnet 0 at time 9 with priority 0.
9 | node3 | Injecting flit 7 into subnet 0 at time 9 with priority 0.
9 | network_0/router_0_0 | Adding flit 0 to VC 0 at input 0 (state: idle, empty).
9 | network_0/router_0_0 | Using precomputed lookahead routing information for VC 0 at input 0 (front: 0).
9 | network_0/router_0_0/buf_0/vc_0 | Changing state from idle to vc_alloc.
9 | network_0/router_0_0 | Beginning VC allocation for VC 0 at input 0 (front: 0).
9 | network_0/router_0_0 |   Requesting VC 0 at output 4 (in_pri: 0, out_pri: 0).
9 | network_0/router_0_0/vc_allocator | Input requests = [ 0 -> [ 4@0 ]  ], output requests = [ 4 -> [ 0@0 ]  ].
grants: -1 -1 -1 -1 0 
aptrs: 0 0 0 0 0 
input match: 4 -1 -1 -1 -1 
output match: -1 -1 -1 -1 0 
9 | network_0/router_0_0/vc_allocator | Input grants = [ 0 -> 4  ], output grants = [ 4 -> 0  ].
9 | network_0/router_0_0 | Assigning VC 0 at output 4 to VC 0 at input 0.
9 | network_0/router_0_0 | Completed VC allocation for VC 0 at input 0 (front: 0).
9 | network_0/router_0_0 |   Acquiring assigned VC 0 at output 4.
9 | network_0/router_0_0/buf_0/vc_0 | Changing state from vc_alloc to active.
9 | network_0/router_1_0 | Adding flit 4 to VC 0 at input 0 (state: idle, empty).
9 | network_0/router_1_0 | Using precomputed lookahead routing information for VC 0 at input 0 (front: 4).
9 | network_0/router_1_0/buf_0/vc_0 | Changing state from idle to vc_alloc.
9 | network_0/router_1_0 | Beginning VC allocation for VC 0 at input 0 (front: 4).
9 | network_0/router_1_0 |   Requesting VC 0 at output 4 (in_pri: 0, out_pri: 0).
9 | network_0/router_1_0/vc_allocator | Input requests = [ 0 -> [ 4@0 ]  ], output requests = [ 4 -> [ 0@0 ]  ].
grants: -1 -1 -1 -1 0 
aptrs: 0 0 0 0 0 
input match: 4 -1 -1 -1 -1 
output match: -1 -1 -1 -1 0 
9 | network_0/router_1_0/vc_allocator | Input grants = [ 0 -> 4  ], output grants = [ 4 -> 0  ].
9 | network_0/router_1_0 | Assigning VC 0 at output 4 to VC 0 at input 0.
9 | network_0/router_1_0 | Completed VC allocation for VC 0 at input 0 (front: 4).
9 | network_0/router_1_0 |   Acquiring assigned VC 0 at output 4.
9 | network_0/router_1_0/buf_0/vc_0 | Changing state from vc_alloc to active.
9 | network_0/network_0_fchan_ingress1 | Completed channel traversal for flit 2.
9 | network_0/network_0_fchan_ingress3 | Completed channel traversal for flit 6.
9 | network_0/network_0_fchan_5 | Completed channel traversal for flit 1.
9 | network_0/network_0_fchan_13 | Completed channel traversal for flit 5.
10 | network_0/network_0_fchan_ingress1 | Beginning channel traversal for flit 3 with delay 1.
10 | network_0/network_0_fchan_ingress3 | Beginning channel traversal for flit 7 with delay 1.
10 | network_0/router_0_0 | Received flit 1 from channel at input 0.
10 | network_0/router_0_1 | Received flit 2 from channel at input 4.
10 | network_0/router_1_0 | Received flit 5 from channel at input 0.
10 | network_0/router_1_1 | Received flit 6 from channel at input 4.
10 | node1 | Enqueuing packet 2 at time 9.
10 | node1 | Enqueuing flit 8 (packet 2) at time 9.
10 | node1 | Enqueuing flit 9 (packet 2) at time 9.
10 | node1 | Enqueuing flit 10 (packet 2) at time 9.
10 | node1 | Enqueuing flit 11 (packet 2) at time 9.
10 | traffic_manager | Finding output VC for flit 8:
10 | traffic_manager |   Output VC 0 is busy.
10 | traffic_manager | No output VC found for flit 8.
10 | network_0/router_0_0 | Adding flit 1 to VC 0 at input 0 (state: active, front: 0).
10 | network_0/router_0_0 | Beginning switch allocation for VC 0 at input 0 (front: 0).
10 | network_0/router_0_0 |   Requesting output 4.0 (non-spec, pri: 0).
10 | network_0/router_0_0/sw_allocator | Input requests = [ 0 -> [ 4@0 ]  ], output requests = [ 4 -> [ 0@0 ]  ].
grants: -1 -1 -1 -1 0 
aptrs: 0 0 0 0 0 
input match: 4 -1 -1 -1 -1 
output match: -1 -1 -1 -1 0 
10 | network_0/router_0_0/sw_allocator | Input grants = [ 0 -> 4  ], output grants = [ 4 -> 0  ].
10 | network_0/router_0_0 | Assigning output 4.0 to VC 0 at input 0.0.
10 | network_0/router_0_0 | Completed switch allocation for VC 0 at input 0 (front: 0).
10 | network_0/router_0_0 |   Scheduling switch connection from input 0.0 to output 4.0.
10 | network_0/router_0_1 | Adding flit 2 to VC 0 at input 4 (state: active, empty).
10 | network_0/router_0_1 | Beginning switch allocation for VC 0 at input 4 (front: 2).
10 | network_0/router_0_1 |   VC 0 at output 1 is full.
grants: -1 -1 -1 -1 -1 
aptrs: 0 0 0 0 2 
input match: -1 -1 -1 -1 -1 
output match: -1 -1 -1 -1 -1 
10 | network_0/router_0_1 | Completed switch allocation for VC 0 at input 4 (front: 2).
10 | network_0/router_0_1 |   No output port allocated.
10 | network_0/router_1_0 | Adding flit 5 to VC 0 at input 0 (state: active, front: 4).
10 | network_0/router_1_0 | Beginning switch allocation for VC 0 at input 0 (front: 4).
10 | network_0/router_1_0 |   Requesting output 4.0 (non-spec, pri: 0).
10 | network_0/router_1_0/sw_allocator | Input requests = [ 0 -> [ 4@0 ]  ], output requests = [ 4 -> [ 0@0 ]  ].
grants: -1 -1 -1 -1 0 
aptrs: 0 0 0 0 0 
input match: 4 -1 -1 -1 -1 
output match: -1 -1 -1 -1 0 
10 | network_0/router_1_0/sw_allocator | Input grants = [ 0 -> 4  ], output grants = [ 4 -> 0  ].
10 | network_0/router_1_0 | Assigning output 4.0 to VC 0 at input 0.0.
10 | network_0/router_1_0 | Completed switch allocation for VC 0 at input 0 (front: 4).
10 | network_0/router_1_0 |   Scheduling switch connection from input 0.0 to output 4.0.
10 | network_0/router_1_1 | Adding flit 6 to VC 0 at input 4 (state: active, empty).
10 | network_0/router_1_1 | Beginning switch allocation for VC 0 at input 4 (front: 6).
10 | network_0/router_1_1 |   VC 0 at output 1 is full.
grants: -1 -1 -1 -1 -1 
aptrs: 0 0 0 0 2 
input match: -1 -1 -1 -1 -1 
output match: -1 -1 -1 -1 -1 
10 | network_0/router_1_1 | Completed switch allocation for VC 0 at input 4 (front: 6).
10 | network_0/router_1_1 |   No output port allocated.
10 | network_0/network_0_fchan_ingress1 | Completed channel traversal for flit 3.
10 | network_0/network_0_fchan_ingress3 | Completed channel traversal for flit 7.
11 | network_0/router_0_1 | Received flit 3 from channel at input 4.
11 | network_0/router_1_1 | Received flit 7 from channel at input 4.
11 | traffic_manager | Finding output VC for flit 8:
11 | traffic_manager |   Output VC 0 is busy.
11 | traffic_manager | No output VC found for flit 8.
11 | network_0/router_0_0 | Beginning switch allocation for VC 0 at input 0 (front: 1).
11 | network_0/router_0_0 |   Requesting output 4.0 (non-spec, pri: 0).
11 | network_0/router_0_0/sw_allocator | Input requests = [ 0 -> [ 4@0 ]  ], output requests = [ 4 -> [ 0@0 ]  ].
grants: -1 -1 -1 -1 0 
aptrs: 0 0 0 0 0 
input match: 4 -1 -1 -1 -1 
output match: -1 -1 -1 -1 0 
11 | network_0/router_0_0/sw_allocator | Input grants = [ 0 -> 4  ], output grants = [ 4 -> 0  ].
11 | network_0/router_0_0 | Assigning output 4.0 to VC 0 at input 0.0.
11 | network_0/router_0_0 | Beginning crossbar traversal for flit 0 from input 0.0 to output 4.0.
11 | network_0/router_0_0 | Completed switch allocation for VC 0 at input 0 (front: 1).
11 | network_0/router_0_0 |   Scheduling switch connection from input 0.0 to output 4.0.
11 | network_0/router_0_0 | Completed crossbar traversal for flit 0 from input 0.0 to output 4.0.
11 | network_0/router_0_0 | Buffering flit 0 at output 4.
11 | network_0/router_0_1 | Adding flit 3 to VC 0 at input 4 (state: active, front: 2).
11 | network_0/router_0_1 | Beginning switch allocation for VC 0 at input 4 (front: 2).
11 | network_0/router_0_1 |   VC 0 at output 1 is full.
grants: -1 -1 -1 -1 -1 
aptrs: 0 0 0 0 2 
input match: -1 -1 -1 -1 -1 
output match: -1 -1 -1 -1 -1 
11 | network_0/router_0_1 | Completed switch allocation for VC 0 at input 4 (front: 2).
11 | network_0/router_0_1 |   No output port allocated.
11 | network_0/router_1_0 | Beginning switch allocation for VC 0 at input 0 (front: 5).
11 | network_0/router_1_0 |   Requesting output 4.0 (non-spec, pri: 0).
11 | network_0/router_1_0/sw_allocator | Input requests = [ 0 -> [ 4@0 ]  ], output requests = [ 4 -> [ 0@0 ]  ].
grants: -1 -1 -1 -1 0 
aptrs: 0 0 0 0 0 
input match: 4 -1 -1 -1 -1 
output match: -1 -1 -1 -1 0 
11 | network_0/router_1_0/sw_allocator | Input grants = [ 0 -> 4  ], output grants = [ 4 -> 0  ].
11 | network_0/router_1_0 | Assigning output 4.0 to VC 0 at input 0.0.
11 | network_0/router_1_0 | Beginning crossbar traversal for flit 4 from input 0.0 to output 4.0.
11 | network_0/router_1_0 | Completed switch allocation for VC 0 at input 0 (front: 5).
11 | network_0/router_1_0 |   Scheduling switch connection from input 0.0 to output 4.0.
11 | network_0/router_1_0 | Completed crossbar traversal for flit 4 from input 0.0 to output 4.0.
11 | network_0/router_1_0 | Buffering flit 4 at output 4.
11 | network_0/router_1_1 | Adding flit 7 to VC 0 at input 4 (state: active, front: 6).
11 | network_0/router_1_1 | Beginning switch allocation for VC 0 at input 4 (front: 6).
11 | network_0/router_1_1 |   VC 0 at output 1 is full.
grants: -1 -1 -1 -1 -1 
aptrs: 0 0 0 0 2 
input match: -1 -1 -1 -1 -1 
output match: -1 -1 -1 -1 -1 
11 | network_0/router_1_1 | Completed switch allocation for VC 0 at input 4 (front: 6).
11 | network_0/router_1_1 |   No output port allocated.
11 | network_0/router_0_0 | Sending flit 0 to channel at output 4.
11 | network_0/router_1_0 | Sending flit 4 to channel at output 4.
12 | network_0/network_0_fchan_egress0 | Beginning channel traversal for flit 0 with delay 1.
12 | network_0/network_0_fchan_egress2 | Beginning channel traversal for flit 4 with delay 1.
12 | node2 | Enqueuing packet 3 at time 12.
12 | node2 | Enqueuing flit 12 (packet 3) at time 12.
12 | node2 | Enqueuing flit 13 (packet 3) at time 12.
12 | node2 | Enqueuing flit 14 (packet 3) at time 12.
12 | node2 | Enqueuing flit 15 (packet 3) at time 12.
12 | traffic_manager | Finding output VC for flit 8:
12 | traffic_manager |   Output VC 0 is busy.
12 | traffic_manager | No output VC found for flit 8.
12 | traffic_manager | Finding output VC for flit 12:
12 | traffic_manager |   Selected output VC 0.
12 | network_0/router_1_0 | Adding VC range [0,0] at output port 0 for flit 12 (input port 4, destination 1).
12 | node2 | Generating lookahead routing info for flit 12.
12 | node2 | Injecting flit 12 into subnet 0 at time 12 with priority 0.
12 | network_0/router_0_0 | Beginning crossbar traversal for flit 1 from input 0.0 to output 4.0.
12 | network_0/router_0_0 | Completed crossbar traversal for flit 1 from input 0.0 to output 4.0.
12 | network_0/router_0_0 | Buffering flit 1 at output 4.
12 | network_0/router_0_1 | Beginning switch allocation for VC 0 at input 4 (front: 2).
12 | network_0/router_0_1 |   VC 0 at output 1 is full.
grants: -1 -1 -1 -1 -1 
aptrs: 0 0 0 0 2 
input match: -1 -1 -1 -1 -1 
output match: -1 -1 -1 -1 -1 
12 | network_0/router_0_1 | Completed switch allocation for VC 0 at input 4 (front: 2).
12 | network_0/router_0_1 |   No output port allocated.
12 | network_0/router_1_0 | Beginning crossbar traversal for flit 5 from input 0.0 to output 4.0.
12 | network_0/router_1_0 | Completed crossbar traversal for flit 5 from input 0.0 to output 4.0.
12 | network_0/router_1_0 | Buffering flit 5 at output 4.
12 | network_0/router_1_1 | Beginning switch allocation for VC 0 at input 4 (front: 6).
12 | network_0/router_1_1 |   VC 0 at output 1 is full.
grants: -1 -1 -1 -1 -1 
aptrs: 0 0 0 0 2 
input match: -1 -1 -1 -1 -1 
output match: -1 -1 -1 -1 -1 
12 | network_0/router_1_1 | Completed switch allocation for VC 0 at input 4 (front: 6).
12 | network_0/router_1_1 |   No output port allocated.
12 | network_0/network_0_fchan_egress0 | Completed channel traversal for flit 0.
12 | network_0/network_0_fchan_egress2 | Completed channel traversal for flit 4.
12 | network_0/router_0_0 | Sending flit 1 to channel at output 4.
12 | network_0/router_1_0 | Sending flit 5 to channel at output 4.
13 | node0 | Ejecting flit 0 (packet 0) from VC 0.
13 | node2 | Ejecting flit 4 (packet 1) from VC 0.
13 | network_0/network_0_fchan_ingress2 | Beginning channel traversal for flit 12 with delay 1.
13 | network_0/network_0_fchan_egress0 | Beginning channel traversal for flit 1 with delay 1.
13 | network_0/network_0_fchan_egress2 | Beginning channel traversal for flit 5 with delay 1.
13 | traffic_manager | Finding output VC for flit 8:
13 | traffic_manager |   Output VC 0 is busy.
13 | traffic_manager | No output VC found for flit 8.
13 | node2 | Injecting flit 13 into subnet 0 at time 13 with priority 0.
13 | node0 | Injecting credit for VC 0 into subnet 0.
13 | node0 | Retiring flit 0 (packet 0, src = 1, dest = 0, hops = 2, flat = 10).
13 | node2 | Injecting credit for VC 0 into subnet 0.
13 | node2 | Retiring flit 4 (packet 1, src = 3, dest = 2, hops = 2, flat = 10).
13 | network_0/router_0_1 | Beginning switch allocation for VC 0 at input 4 (front: 2).
13 | network_0/router_0_1 |   VC 0 at output 1 is full.
grants: -1 -1 -1 -1 -1 
aptrs: 0 0 0 0 2 
input match: -1 -1 -1 -1 -1 
output match: -1 -1 -1 -1 -1 
13 | network_0/router_0_1 | Completed switch allocation for VC 0 at input 4 (front: 2).
13 | network_0/router_0_1 |   No output port allocated.
13 | network_0/router_1_1 | Beginning switch allocation for VC 0 at input 4 (front: 6).
13 | network_0/router_1_1 |   VC 0 at output 1 is full.
grants: -1 -1 -1 -1 -1 
aptrs: 0 0 0 0 2 
input match: -1 -1 -1 -1 -1 
output match: -1 -1 -1 -1 -1 
13 | network_0/router_1_1 | Completed switch allocation for VC 0 at input 4 (front: 6).
13 | network_0/router_1_1 |   No output port allocated.
13 | network_0/network_0_fchan_ingress2 | Completed channel traversal for flit 12.
13 | network_0/network_0_fchan_egress0 | Completed channel traversal for flit 1.
13 | network_0/network_0_fchan_egress2 | Completed channel traversal for flit 5.
14 | node0 | Ejecting flit 1 (packet 0) from VC 0.
14 | node2 | Ejecting flit 5 (packet 1) from VC 0.
14 | network_0/network_0_fchan_ingress2 | Beginning channel traversal for flit 13 with delay 1.
14 | network_0/router_1_0 | Received flit 12 from channel at input 4.
14 | traffic_manager | Finding output VC for flit 8:
14 | traffic_manager |   Output VC 0 is busy.
14 | traffic_manager | No output VC found for flit 8.
14 | traffic_manager | Selected output VC 0 is full for flit 14.
14 | node0 | Injecting credit for VC 0 into subnet 0.
14 | node0 | Retiring flit 1 (packet 0, src = 1, dest = -1, hops = 2, flat = 10).
14 | node2 | Injecting credit for VC 0 into subnet 0.
14 | node2 | Retiring flit 5 (packet 1, src = 3, dest = -1, hops = 2, flat = 10).
14 | network_0/router_0_1 | Beginning switch allocation for VC 0 at input 4 (front: 2).
14 | network_0/router_0_1 |   Requesting output 1.0 (non-spec, pri: 0).
14 | network_0/router_0_1/sw_allocator | Input requests = [ 4 -> [ 1@0 ]  ], output requests = [ 1 -> [ 4@0 ]  ].
grants: -1 4 -1 -1 -1 
aptrs: 0 0 0 0 2 
input match: -1 -1 -1 -1 1 
output match: -1 4 -1 -1 -1 
14 | network_0/router_0_1/sw_allocator | Input grants = [ 4 -> 1  ], output grants = [ 1 -> 4  ].
14 | network_0/router_0_1 | Assigning output 1.0 to VC 0 at input 4.0.
14 | network_0/router_0_1 | Completed switch allocation for VC 0 at input 4 (front: 2).
14 | network_0/router_0_1 |   Scheduling switch connection from input 4.0 to output 1.0.
14 | network_0/router_1_0 | Adding flit 12 to VC 0 at input 4 (state: idle, empty).
14 | network_0/router_1_0 | Using precomputed lookahead routing information for VC 0 at input 4 (front: 12).
14 | network_0/router_1_0/buf_4/vc_0 | Changing state from idle to vc_alloc.
14 | network_0/router_1_0 | Beginning VC allocation for VC 0 at input 4 (front: 12).
14 | network_0/router_1_0 |   Requesting VC 0 at output 0 (in_pri: 0, out_pri: 0).
14 | network_0/router_1_0/vc_allocator | Input requests = [ 4 -> [ 0@0 ]  ], output requests = [ 0 -> [ 4@0 ]  ].
grants: 4 -1 -1 -1 -1 
aptrs: 0 0 0 0 0 
input match: -1 -1 -1 -1 0 
output match: 4 -1 -1 -1 -1 
14 | network_0/router_1_0/vc_allocator | Input grants = [ 4 -> 0  ], output grants = [ 0 -> 4  ].
14 | network_0/router_1_0 | Assigning VC 0 at output 0 to VC 0 at input 4.
14 | network_0/router_1_0 | Completed VC allocation for VC 0 at input 4 (front: 12).
14 | network_0/router_1_0 |   Acquiring assigned VC 0 at output 0.
14 | network_0/router_1_0/buf_4/vc_0 | Changing state from vc_alloc to active.
14 | network_0/router_1_1 | Beginning switch allocation for VC 0 at input 4 (front: 6).
14 | network_0/router_1_1 |   Requesting output 1.0 (non-spec, pri: 0).
14 | network_0/router_1_1/sw_allocator | Input requests = [ 4 -> [ 1@0 ]  ], output requests = [ 1 -> [ 4@0 ]  ].
grants: -1 4 -1 -1 -1 
aptrs: 0 0 0 0 2 
input match: -1 -1 -1 -1 1 
output match: -1 4 -1 -1 -1 
14 | network_0/router_1_1/sw_allocator | Input grants = [ 4 -> 1  ], output grants = [ 1 -> 4  ].
14 | network_0/router_1_1 | Assigning output 1.0 to VC 0 at input 4.0.
14 | network_0/router_1_1 | Completed switch allocation for VC 0 at input 4 (front: 6).
14 | network_0/router_1_1 |   Scheduling switch connection from input 4.0 to output 1.0.
14 | network_0/network_0_fchan_ingress2 | Completed channel traversal for flit 13.
15 | network_0/router_1_0 | Received flit 13 from channel at input 4.
15 | node0 | Enqueuing packet 4 at time 15.
15 | node0 | Enqueuing flit 16 (packet 4) at time 15.
15 | node0 | Enqueuing flit 17 (packet 4) at time 15.
15 | node0 | Enqueuing flit 18 (packet 4) at time 15.
15 | node0 | Enqueuing flit 19 (packet 4) at time 15.
15 | node3 | Enqueuing packet 5 at time 15.
15 | node3 | Enqueuing flit 20 (packet 5) at time 15.
15 | node3 | Enqueuing flit 21 (packet 5) at time 15.
15 | node3 | Enqueuing flit 22 (packet 5) at time 15.
15 | node3 | Enqueuing flit 23 (packet 5) at time 15.
15 | traffic_manager | Finding output VC for flit 16:
15 | traffic_manager |   Selected output VC 0.
15 | network_0/router_0_0 | Adding VC range [0,0] at output port 4 for flit 16 (input port 4, destination 0).
15 | node0 | Generating lookahead routing info for flit 16.
15 | node0 | Injecting flit 16 into subnet 0 at time 15 with priority 0.
15 | traffic_manager | Finding output VC for flit 8:
15 | traffic_manager |   Output VC 0 is busy.
15 | traffic_manager | No output VC found for flit 8.
15 | traffic_manager | Selected output VC 0 is full for flit 14.
15 | traffic_manager | Finding output VC for flit 20:
15 | traffic_manager |   Output VC 0 is busy.
15 | traffic_manager | No output VC found for flit 20.
15 | network_0/router_0_1 | Beginning switch allocation for VC 0 at input 4 (front: 3).
15 | network_0/router_0_1 |   Requesting output 1.0 (non-spec, pri: 0).
15 | network_0/router_0_1/sw_allocator | Input requests = [ 4 -> [ 1@0 ]  ], output requests = [ 1 -> [ 4@0 ]  ].
grants: -1 4 -1 -1 -1 
aptrs: 0 0 0 0 2 
input match: -1 -1 -1 -1 1 
output match: -1 4 -1 -1 -1 
15 | network_0/router_0_1/sw_allocator | Input grants = [ 4 -> 1  ], output grants = [ 1 -> 4  ].
15 | network_0/router_0_1 | Assigning output 1.0 to VC 0 at input 4.0.
15 | network_0/router_0_1 | Beginning crossbar traversal for flit 2 from input 4.0 to output 1.0.
15 | network_0/router_0_1 | Completed switch allocation for VC 0 at input 4 (front: 3).
15 | network_0/router_0_1 |   Scheduling switch connection from input 4.0 to output 1.0.
15 | network_0/router_0_1 | Completed crossbar traversal for flit 2 from input 4.0 to output 1.0.
15 | network_0/router_0_1 | Buffering flit 2 at output 1.
15 | network_0/router_1_0 | Adding flit 13 to VC 0 at input 4 (state: active, front: 12).
15 | network_0/router_1_0 | Beginning switch allocation for VC 0 at input 4 (front: 12).
15 | network_0/router_1_0 |   Requesting output 0.0 (non-spec, pri: 0).
15 | network_0/router_1_0/sw_allocator | Input requests = [ 4 -> [ 0@0 ]  ], output requests = [ 0 -> [ 4@0 ]  ].
grants: 4 -1 -1 -1 -1 
aptrs: 0 0 0 0 0 
input match: -1 -1 -1 -1 0 
output match: 4 -1 -1 -1 -1 
15 | network_0/router_1_0/sw_allocator | Input grants = [ 4 -> 0  ], output grants = [ 0 -> 4  ].
15 | network_0/router_1_0 | Assigning output 0.0 to VC 0 at input 4.0.
15 | network_0/router_1_0 | Completed switch allocation for VC 0 at input 4 (front: 12).
15 | network_0/router_1_0 |   Scheduling switch connection from input 4.0 to output 0.0.
15 | network_0/router_1_0 | Updating lookahead routing information for flit 12.
15 | network_0/router_1_1 | Adding VC range [0,0] at output port 3 for flit 12 (input port 1, destination 1).
15 | network_0/router_1_1 | Beginning switch allocation for VC 0 at input 4 (front: 7).
15 | network_0/router_1_1 |   Requesting output 1.0 (non-spec, pri: 0).
15 | network_0/router_1_1/sw_allocator | Input requests = [ 4 -> [ 1@0 ]  ], output requests = [ 1 -> [ 4@0 ]  ].
grants: -1 4 -1 -1 -1 
aptrs: 0 0 0 0 2 
input match: -1 -1 -1 -1 1 
output match: -1 4 -1 -1 -1 
15 | network_0/router_1_1/sw_allocator | Input grants = [ 4 -> 1  ], output grants = [ 1 -> 4  ].
15 | network_0/router_1_1 | Assigning output 1.0 to VC 0 at input 4.0.
15 | network_0/router_1_1 | Beginning crossbar traversal for flit 6 from input 4.0 to output 1.0.
15 | network_0/router_1_1 | Completed switch allocation for VC 0 at input 4 (front: 7).
15 | network_0/router_1_1 |   Scheduling switch connection from input 4.0 to output 1.0.
15 | network_0/router_1_1 | Completed crossbar traversal for flit 6 from input 4.0 to output 1.0.
15 | network_0/router_1_1 | Buffering flit 6 at output 1.
15 | network_0/router_0_1 | Sending flit 2 to channel at output 1.
15 | network_0/router_1_1 | Sending flit 6 to channel at output 1.
16 | network_0/network_0_fchan_ingress0 | Beginning channel traversal for flit 16 with delay 1.
16 | network_0/network_0_fchan_5 | Beginning channel traversal for flit 2 with delay 1.
16 | network_0/network_0_fchan_13 | Beginning channel traversal for flit 6 with delay 1.
16 | node0 | Injecting flit 17 into subnet 0 at time 16 with priority 0.
16 | traffic_manager | Finding output VC for flit 8:
16 | traffic_manager |   Output VC 0 is busy.
16 | traffic_manager | No output VC found for flit 8.
16 | traffic_manager | Selected output VC 0 is full for flit 14.
16 | traffic_manager | Finding output VC for flit 20:
16 | traffic_manager |   Output VC 0 is busy.
16 | traffic_manager | No output VC found for flit 20.
16 | network_0/router_0_1 | Beginning crossbar traversal for flit 3 from input 4.0 to output 1.0.
16 | network_0/router_0_1 | Completed crossbar traversal for flit 3 from input 4.0 to output 1.0.
16 | network_0/router_0_1 | Buffering flit 3 at output 1.
16 | network_0/router_1_0 | Beginning switch allocation for VC 0 at input 4 (front: 13).
16 | network_0/router_1_0 |   Requesting output 0.0 (non-spec, pri: 0).
16 | network_0/router_1_0/sw_allocator | Input requests = [ 4 -> [ 0@0 ]  ], output requests = [ 0 -> [ 4@0 ]  ].
grants: 4 -1 -1 -1 -1 
aptrs: 0 0 0 0 1 
input match: -1 -1 -1 -1 0 
output match: 4 -1 -1 -1 -1 
16 | network_0/router_1_0/sw_allocator | Input grants = [ 4 -> 0  ], output grants = [ 0 -> 4  ].
16 | network_0/router_1_0 | Assigning output 0.0 to VC 0 at input 4.0.
16 | network_0/router_1_0 | Beginning crossbar traversal for flit 12 from input 4.0 to output 0.0.
16 | network_0/router_1_0 | Completed switch allocation for VC 0 at input 4 (front: 13).
16 | network_0/router_1_0 |   Scheduling switch connection from input 4.0 to output 0.0.
16 | network_0/router_1_0 | Completed crossbar traversal for flit 12 from input 4.0 to output 0.0.
16 | network_0/router_1_0 | Buffering flit 12 at output 0.
16 | network_0/router_1_1 | Beginning crossbar traversal for flit 7 from input 4.0 to output 1.0.
16 | network_0/router_1_1 | Completed crossbar traversal for flit 7 from input 4.0 to output 1.0.
16 | network_0/router_1_1 | Buffering flit 7 at output 1.
16 | network_0/network_0_fchan_ingress0 | Completed channel traversal for flit 16.
16 | network_0/network_0_fchan_5 | Completed channel traversal for flit 2.
16 | network_0/network_0_fchan_13 | Completed channel traversal for flit 6.
16 | network_0/router_0_1 | Sending flit 3 to channel at output 1.
16 | network_0/router_1_0 | Sending flit 12 to channel at output 0.
16 | network_0/router_1_1 | Sending flit 7 to channel at output 1.
17 | network_0/network_0_fchan_ingress0 | Beginning channel traversal for flit 17 with delay 1.
17 | network_0/network_0_fchan_5 | Beginning channel traversal for flit 3 with delay 1.
17 | network_0/network_0_fchan_8 | Beginning channel traversal for flit 12 with delay 1.
17 | network_0/network_0_fchan_13 | Beginning channel traversal for flit 7 with delay 1.
17 | network_0/router_0_0 | Received flit 2 from channel at input 0.
17 | network_0/router_0_0 | Received flit 16 from channel at input 4.
17 | network_0/router_1_0 | Received flit 6 from channel at input 0.
17 | traffic_manager | Selected output VC 0 is full for flit 18.
17 | traffic_manager | Finding output VC for flit 8:
17 | traffic_manager |   Selected output VC 0.
17 | network_0/router_0_1 | Adding VC range [0,0] at output port 2 for flit 8 (input port 4, destination 3).
17 | node1 | Generating lookahead routing info for flit 8.
17 | node1 | Injecting flit 8 into subnet 0 at time 17 with priority 0.
17 | node2 | Injecting flit 14 into subnet 0 at time 17 with priority 0.
17 | traffic_manager | Finding output VC for flit 20:
17 | traffic_manager |   Selected output VC 0.
17 | network_0/router_1_1 | Adding VC range [0,0] at output port 1 for flit 20 (input port 4, destination 2).
17 | node3 | Generating lookahead routing info for flit 20.
17 | node3 | Injecting flit 20 into subnet 0 at time 17 with priority 0.
17 | network_0/router_0_0 | Adding flit 2 to VC 0 at input 0 (state: active, empty).
17 | network_0/router_0_0 | Adding flit 16 to VC 0 at input 4 (state: idle, empty).
17 | network_0/router_0_0 | Using precomputed lookahead routing information for VC 0 at input 4 (front: 16).
17 | network_0/router_0_0/buf_4/vc_0 | Changing state from idle to vc_alloc.
17 | network_0/router_0_0 | Beginning VC allocation for VC 0 at input 4 (front: 16).
17 | network_0/router_0_0 |   VC 0 at output 4 is in use by VC 0 at input 0 (front flit: 2).
grants: -1 -1 -1 -1 -1 
aptrs: 0 0 0 0 0 
input match: -1 -1 -1 -1 -1 
output match: -1 -1 -1 -1 -1 
17 | network_0/router_0_0 | Beginning switch allocation for VC 0 at input 0 (front: 2).
17 | network_0/router_0_0 |   Requesting output 4.0 (non-spec, pri: 0).
17 | network_0/router_0_0/sw_allocator | Input requests = [ 0 -> [ 4@0 ]  ], output requests = [ 4 -> [ 0@0 ]  ].
grants: -1 -1 -1 -1 0 
aptrs: 0 0 0 0 0 
input match: 4 -1 -1 -1 -1 
output match: -1 -1 -1 -1 0 
17 | network_0/router_0_0/sw_allocator | Input grants = [ 0 -> 4  ], output grants = [ 4 -> 0  ].
17 | network_0/router_0_0 | Assigning output 4.0 to VC 0 at input 0.0.
17 | network_0/router_0_0 | Completed VC allocation for VC 0 at input 4 (front: 16).
17 | network_0/router_0_0 |   No output VC allocated.
17 | network_0/router_0_0 | Completed switch allocation for VC 0 at input 0 (front: 2).
17 | network_0/router_0_0 |   Scheduling switch connection from input 0.0 to output 4.0.
17 | network_0/router_1_0 | Adding flit 6 to VC 0 at input 0 (state: active, empty).
17 | network_0/router_1_0 | Beginning switch allocation for VC 0 at input 0 (front: 6).
17 | network_0/router_1_0 |   Requesting output 4.0 (non-spec, pri: 0).
17 | network_0/router_1_0/sw_allocator | Input requests = [ 0 -> [ 4@0 ]  ], output requests = [ 4 -> [ 0@0 ]  ].
grants: -1 -1 -1 -1 0 
aptrs: 0 0 0 0 1 
input match: 4 -1 -1 -1 -1 
output match: -1 -1 -1 -1 0 
17 | network_0/router_1_0/sw_allocator | Input grants = [ 0 -> 4  ], output grants = [ 4 -> 0  ].
17 | network_0/router_1_0 | Assigning output 4.0 to VC 0 at input 0.0.
17 | network_0/router_1_0 | Beginning crossbar traversal for flit 13 from input 4.0 to output 0.0.
17 | network_0/router_1_0 | Completed switch allocation for VC 0 at input 0 (front: 6).
17 | network_0/router_1_0 |   Scheduling switch connection from input 0.0 to output 4.0.
17 | network_0/router_1_0 | Completed crossbar traversal for flit 13 from input 4.0 to output 0.0.
17 | network_0/router_1_0 | Buffering flit 13 at output 0.
17 | network_0/network_0_fchan_ingress0 | Completed channel traversal for flit 17.
17 | network_0/network_0_fchan_5 | Completed channel traversal for flit 3.
17 | network_0/network_0_fchan_8 | Completed channel traversal for flit 12.
17 | network_0/network_0_fchan_13 | Completed channel traversal for flit 7.
17 | network_0/router_1_0 | Sending flit 13 to channel at output 0.
18 | network_0/network_0_fchan_ingress1 | Beginning channel traversal for flit 8 with delay 1.
18 | network_0/network_0_fchan_ingress2 | Beginning channel traversal for flit 14 with delay 1.
18 | network_0/network_0_fchan_ingress3 | Beginning channel traversal for flit 20 with delay 1.
18 | network_0/network_0_fchan_8 | Beginning channel traversal for flit 13 with delay 1.
18 | network_0/router_0_0 | Received flit 3 from channel at input 0.
18 | network_0/router_0_0 | Received flit 17 from channel at input 4.
18 | network_0/router_1_0 | Received flit 7 from channel at input 0.
18 | network_0/router_1_1 | Received flit 12 from channel at input 1.
18 | traffic_manager | Selected output VC 0 is full for flit 18.
18 | node1 | Injecting flit 9 into subnet 0 at time 18 with priority 0.
18 | node2 | Injecting flit 15 into subnet 0 at time 18 with priority 0.
18 | node3 | Injecting flit 21 into subnet 0 at time 18 with priority 0.
18 | network_0/router_0_0 | Adding flit 3 to VC 0 at input 0 (state: active, empty).
18 | network_0/router_0_0 | Adding flit 17 to VC 0 at input 4 (state: vc_alloc, front: 16).
18 | network_0/router_0_0 | Beginning VC allocation for VC 0 at input 4 (front: 16).
18 | network_0/router_0_0 |   VC 0 at output 4 is in use by VC 0 at input 0 (front flit: 3).
grants: -1 -1 -1 -1 -1 
aptrs: 0 0 0 0 0 
input match: -1 -1 -1 -1 -1 
output match: -1 -1 -1 -1 -1 
18 | network_0/router_0_0 | Beginning switch allocation for VC 0 at input 0 (front: 3).
18 | network_0/router_0_0 |   Requesting output 4.0 (non-spec, pri: 0).
18 | network_0/router_0_0/sw_allocator | Input requests = [ 0 -> [ 4@0 ]  ], output requests = [ 4 -> [ 0@0 ]  ].
grants: -1 -1 -1 -1 0 
aptrs: 0 0 0 0 0 
input match: 4 -1 -1 -1 -1 
output match: -1 -1 -1 -1 0 
18 | network_0/router_0_0/sw_allocator | Input grants = [ 0 -> 4  ], output grants = [ 4 -> 0  ].
18 | network_0/router_0_0 | Assigning output 4.0 to VC 0 at input 0.0.
18 | network_0/router_0_0 | Beginning crossbar traversal for flit 2 from input 0.0 to output 4.0.
18 | network_0/router_0_0 | Completed VC allocation for VC 0 at input 4 (front: 16).
18 | network_0/router_0_0 |   No output VC allocated.
18 | network_0/router_0_0 | Completed switch allocation for VC 0 at input 0 (front: 3).
18 | network_0/router_0_0 |   Scheduling switch connection from input 0.0 to output 4.0.
18 | network_0/router_0_0 | Completed crossbar traversal for flit 2 from input 0.0 to output 4.0.
18 | network_0/router_0_0 | Buffering flit 2 at output 4.
18 | network_0/router_1_0 | Adding flit 7 to VC 0 at input 0 (state: active, empty).
18 | network_0/router_1_0 | Beginning switch allocation for VC 0 at input 0 (front: 7).
18 | network_0/router_1_0 |   Requesting output 4.0 (non-spec, pri: 0).
18 | network_0/router_1_0/sw_allocator | Input requests = [ 0 -> [ 4@0 ]  ], output requests = [ 4 -> [ 0@0 ]  ].
grants: -1 -1 -1 -1 0 
aptrs: 0 0 0 0 1 
input match: 4 -1 -1 -1 -1 
output match: -1 -1 -1 -1 0 
18 | network_0/router_1_0/sw_allocator | Input grants = [ 0 -> 4  ], output grants = [ 4 -> 0  ].
18 | network_0/router_1_0 | Assigning output 4.0 to VC 0 at input 0.0.
18 | network_0/router_1_0 | Beginning crossbar traversal for flit 6 from input 0.0 to output 4.0.
18 | network_0/router_1_0 | Completed switch allocation for VC 0 at input 0 (front: 7).
18 | network_0/router_1_0 |   Scheduling switch connection from input 0.0 to output 4.0.
18 | network_0/router_1_0 | Completed crossbar traversal for flit 6 from input 0.0 to output 4.0.
18 | network_0/router_1_0 | Buffering flit 6 at output 4.
18 | network_0/router_1_1 | Adding flit 12 to VC 0 at input 1 (state: idle, empty).
18 | network_0/router_1_1 | Using precomputed lookahead routing information for VC 0 at input 1 (front: 12).
18 | network_0/router_1_1/buf_1/vc_0 | Changing state from idle to vc_alloc.
18 | network_0/router_1_1 | Beginning VC allocation for VC 0 at input 1 (front: 12).
18 | network_0/router_1_1 |   Requesting VC 0 at output 3 (in_pri: 0, out_pri: 0).
18 | network_0/router_1_1/vc_allocator | Input requests = [ 1 -> [ 3@0 ]  ], output requests = [ 3 -> [ 1@0 ]  ].
grants: -1 -1 -1 1 -1 
aptrs: 0 0 0 0 2 
input match: -1 3 -1 -1 -1 
output match: -1 -1 -1 1 -1 
18 | network_0/router_1_1/vc_allocator | Input grants = [ 1 -> 3  ], output grants = [ 3 -> 1  ].
18 | network_0/router_1_1 | Assigning VC 0 at output 3 to VC 0 at input 1.
18 | network_0/router_1_1 | Completed VC allocation for VC 0 at input 1 (front: 12).
18 | network_0/router_1_1 |   Acquiring assigned VC 0 at output 3.
18 | network_0/router_1_1/buf_1/vc_0 | Changing state from vc_alloc to active.
18 | network_0/network_0_fchan_ingress1 | Completed channel traversal for flit 8.
18 | network_0/network_0_fchan_ingress2 | Completed channel traversal for flit 14.
18 | network_0/network_0_fchan_ingress3 | Completed channel traversal for flit 20.
18 | network_0/network_0_fchan_8 | Completed channel traversal for flit 13.
18 | network_0/router_0_0 | Sending flit 2 to channel at output 4.
18 | network_0/router_1_0 | Sending flit 6 to channel at output 4.
19 | network_0/network_0_fchan_ingress1 | Beginning channel traversal for flit 9 with delay 1.
19 | network_0/network_0_fchan_ingress2 | Beginning channel traversal for flit 15 with delay 1.
19 | network_0/network_0_fchan_ingress3 | Beginning channel traversal for flit 21 with delay 1.
19 | network_0/network_0_fchan_egress0 | Beginning channel traversal for flit 2 with delay 1.
19 | network_0/network_0_fchan_egress2 | Beginning channel traversal for flit 6 with delay 1.
19 | network_0/router_0_1 | Received flit 8 from channel at input 4.
19 | network_0/router_1_0 | Received flit 14 from channel at input 4.
19 | network_0/router_1_1 | Received flit 13 from channel at input 1.
19 | network_0/router_1_1 | Received flit 20 from channel at input 4.
19 | traffic_manager | Selected output VC 0 is full for flit 18.
19 | traffic_manager | Selected output VC 0 is full for flit 10.
19 | traffic_manager | Selected output VC 0 is full for flit 22.
19 | network_0/router_0_0 | Beginning VC allocation for VC 0 at input 4 (front: 16).
19 | network_0/router_0_0 |   VC 0 at output 4 is in use by VC 0 at input 0 (empty).
grants: -1 -1 -1 -1 -1 
aptrs: 0 0 0 0 0 
input match: -1 -1 -1 -1 -1 
output match: -1 -1 -1 -1 -1 
19 | network_0/router_0_0 | Beginning crossbar traversal for flit 3 from input 0.0 to output 4.0.
19 | network_0/router_0_0 | Completed VC allocation for VC 0 at input 4 (front: 16).
19 | network_0/router_0_0 |   No output VC allocated.
19 | network_0/router_0_0 | Completed crossbar traversal for flit 3 from input 0.0 to output 4.0.
19 | network_0/router_0_0 | Buffering flit 3 at output 4.
19 | network_0/router_0_1 | Adding flit 8 to VC 0 at input 4 (state: idle, empty).
19 | network_0/router_0_1 | Using precomputed lookahead routing information for VC 0 at input 4 (front: 8).
19 | network_0/router_0_1/buf_4/vc_0 | Changing state from idle to vc_alloc.
19 | network_0/router_0_1 | Beginning VC allocation for VC 0 at input 4 (front: 8).
19 | network_0/router_0_1 |   Requesting VC 0 at output 2 (in_pri: 0, out_pri: 0).
19 | network_0/router_0_1/vc_allocator | Input requests = [ 4 -> [ 2@0 ]  ], output requests = [ 2 -> [ 4@0 ]  ].
grants: -1 -1 4 -1 -1 
aptrs: 0 0 0 0 2 
input match: -1 -1 -1 -1 2 
output match: -1 -1 4 -1 -1 
19 | network_0/router_0_1/vc_allocator | Input grants = [ 4 -> 2  ], output grants = [ 2 -> 4  ].
19 | network_0/router_0_1 | Assigning VC 0 at output 2 to VC 0 at input 4.
19 | network_0/router_0_1 | Completed VC allocation for VC 0 at input 4 (front: 8).
19 | network_0/router_0_1 |   Acquiring assigned VC 0 at output 2.
19 | network_0/router_0_1/buf_4/vc_0 | Changing state from vc_alloc to active.
19 | network_0/router_1_0 | Adding flit 14 to VC 0 at input 4 (state: active, empty).
19 | network_0/router_1_0 | Beginning switch allocation for VC 0 at input 4 (front: 14).
19 | network_0/router_1_0 |   VC 0 at output 0 is full.
grants: -1 -1 -1 -1 -1 
aptrs: 0 0 0 0 1 
input match: -1 -1 -1 -1 -1 
output match: -1 -1 -1 -1 -1 
19 | network_0/router_1_0 | Beginning crossbar traversal for flit 7 from input 0.0 to output 4.0.
19 | network_0/router_1_0 | Completed switch allocation for VC 0 at input 4 (front: 14).
19 | network_0/router_1_0 |   No output port allocated.
19 | network_0/router_1_0 | Completed crossbar traversal for flit 7 from input 0.0 to output 4.0.
19 | network_0/router_1_0 | Buffering flit 7 at output 4.
19 | network_0/router_1_1 | Adding flit 13 to VC 0 at input 1 (state: active, front: 12).
19 | network_0/router_1_1 | Adding flit 20 to VC 0 at input 4 (state: idle, empty).
19 | network_0/router_1_1 | Using precomputed lookahead routing information for VC 0 at input 4 (front: 20).
19 | network_0/router_1_1/buf_4/vc_0 | Changing state from idle to vc_alloc.
19 | network_0/router_1_1 | Beginning VC allocation for VC 0 at input 4 (front: 20).
19 | network_0/router_1_1 |   VC 0 at output 1 is in use by VC 0 at input 4 (front flit: 20).
grants: -1 -1 -1 -1 -1 
aptrs: 0 4 0 0 2 
input match: -1 -1 -1 -1 -1 
output match: -1 -1 -1 -1 -1 
19 | network_0/router_1_1 | Beginning switch allocation for VC 0 at input 1 (front: 12).
19 | network_0/router_1_1 |   Requesting output 3.0 (non-spec, pri: 0).
19 | network_0/router_1_1/sw_allocator | Input requests = [ 1 -> [ 3@0 ]  ], output requests = [ 3 -> [ 1@0 ]  ].
grants: -1 -1 -1 1 -1 
aptrs: 0 0 0 0 2 
input match: -1 3 -1 -1 -1 
output match: -1 -1 -1 1 -1 
19 | network_0/router_1_1/sw_allocator | Input grants = [ 1 -> 3  ], output grants = [ 3 -> 1  ].
19 | network_0/router_1_1 | Assigning output 3.0 to VC 0 at input 1.0.
19 | network_0/router_1_1 | Completed VC allocation for VC 0 at input 4 (front: 20).
19 | network_0/router_1_1 |   No output VC allocated.
19 | network_0/router_1_1 | Completed switch allocation for VC 0 at input 1 (front: 12).
19 | network_0/router_1_1 |   Scheduling switch connection from input 1.0 to output 3.0.
19 | network_0/router_1_1 | Updating lookahead routing information for flit 12.
19 | network_0/router_0_1 | Adding VC range [0,0] at output port 4 for flit 12 (input port 2, destination 1).
19 | network_0/network_0_fchan_ingress1 | Completed channel traversal for flit 9.
19 | network_0/network_0_fchan_ingress2 | Completed channel traversal for flit 15.
19 | network_0/network_0_fchan_ingress3 | Completed channel traversal for flit 21.
19 | network_0/network_0_fchan_egress0 | Completed channel traversal for flit 2.
19 | network_0/network_0_fchan_egress2 | Completed channel traversal for flit 6.
19 | network_0/router_0_0 | Sending flit 3 to channel at output 4.
19 | network_0/router_1_0 | Sending flit 7 to channel at output 4.
20 | node0 | Ejecting flit 2 (packet 0) from VC 0.
20 | node2 | Ejecting flit 6 (packet 1) from VC 0.
20 | network_0/network_0_fchan_egress0 | Beginning channel traversal for flit 3 with delay 1.
20 | network_0/network_0_fchan_egress2 | Beginning channel traversal for flit 7 with delay 1.
20 | network_0/router_0_1 | Received flit 9 from channel at input 4.
20 | network_0/router_1_0 | Received flit 15 from channel at input 4.
20 | network_0/router_1_1 | Received flit 21 from channel at input 4.
20 | node2 | Enqueuing packet 6 at time 20.
20 | node2 | Enqueuing flit 24 (packet 6) at time 20.
20 | node2 | Enqueuing flit 25 (packet 6) at time 20.
20 | node2 | Enqueuing flit 26 (packet 6) at time 20.
20 | node2 | Enqueuing flit 27 (packet 6) at time 20.
20 | traffic_manager | Selected output VC 0 is full for flit 18.
20 | traffic_manager | Selected output VC 0 is full for flit 10.
20 | traffic_manager | Finding output VC for flit 24:
20 | traffic_manager |   Output VC 0 is busy.
20 | traffic_manager | No output VC found for flit 24.
20 | traffic_manager | Selected output VC 0 is full for flit 22.
20 | node0 | Injecting credit for VC 0 into subnet 0.
20 | node0 | Retiring flit 2 (packet 0, src = 1, dest = -1, hops = 2, flat = 12).
20 | node2 | Injecting credit for VC 0 into subnet 0.
20 | node2 | Retiring flit 6 (packet 1, src = 3, dest = -1, hops = 2, flat = 12).
20 | network_0/router_0_0 | Beginning VC allocation for VC 0 at input 4 (front: 16).
20 | network_0/router_0_0 |   VC 0 at output 4 is in use by VC 0 at input 0 (empty).
grants: -1 -1 -1 -1 -1 
aptrs: 0 0 0 0 0 
input match: -1 -1 -1 -1 -1 
output match: -1 -1 -1 -1 -1 
20 | network_0/router_0_0 | Completed VC allocation for VC 0 at input 4 (front: 16).
20 | network_0/router_0_0 |   No output VC allocated.
20 | network_0/router_0_1 | Adding flit 9 to VC 0 at input 4 (state: active, front: 8).
20 | network_0/router_0_1 | Beginning switch allocation for VC 0 at input 4 (front: 8).
20 | network_0/router_0_1 |   Requesting output 2.0 (non-spec, pri: 0).
20 | network_0/router_0_1/sw_allocator | Input requests = [ 4 -> [ 2@0 ]  ], output requests = [ 2 -> [ 4@0 ]  ].
grants: -1 -1 4 -1 -1 
aptrs: 0 0 0 0 2 
input match: -1 -1 -1 -1 2 
output match: -1 -1 4 -1 -1 
20 | network_0/router_0_1/sw_allocator | Input grants = [ 4 -> 2  ], output grants = [ 2 -> 4  ].
20 | network_0/router_0_1 | Assigning output 2.0 to VC 0 at input 4.0.
20 | network_0/router_0_1 | Completed switch allocation for VC 0 at input 4 (front: 8).
20 | network_0/router_0_1 |   Scheduling switch connection from input 4.0 to output 2.0.
20 | network_0/router_0_1 | Updating lookahead routing information for flit 8.
20 | network_0/router_1_1 | Adding VC range [0,0] at output port 4 for flit 8 (input port 3, destination 3).
20 | network_0/router_1_0 | Adding flit 15 to VC 0 at input 4 (state: active, front: 14).
20 | network_0/router_1_0 | Beginning switch allocation for VC 0 at input 4 (front: 14).
20 | network_0/router_1_0 |   VC 0 at output 0 is full.
grants: -1 -1 -1 -1 -1 
aptrs: 0 0 0 0 1 
input match: -1 -1 -1 -1 -1 
output match: -1 -1 -1 -1 -1 
20 | network_0/router_1_0 | Completed switch allocation for VC 0 at input 4 (front: 14).
20 | network_0/router_1_0 |   No output port allocated.
20 | network_0/router_1_1 | Adding flit 21 to VC 0 at input 4 (state: vc_alloc, front: 20).
20 | network_0/router_1_1 | Beginning VC allocation for VC 0 at input 4 (front: 20).
20 | network_0/router_1_1 |   VC 0 at output 1 is in use by VC 0 at input 4 (front flit: 20).
grants: -1 -1 -1 -1 -1 
aptrs: 0 4 0 0 2 
input match: -1 -1 -1 -1 -1 
output match: -1 -1 -1 -1 -1 
20 | network_0/router_1_1 | Beginning switch allocation for VC 0 at input 1 (front: 13).
20 | network_0/router_1_1 |   Requesting output 3.0 (non-spec, pri: 0).
20 | network_0/router_1_1/sw_allocator | Input requests = [ 1 -> [ 3@0 ]  ], output requests = [ 3 -> [ 1@0 ]  ].
grants: -1 -1 -1 1 -1 
aptrs: 0 4 0 0 2 
input match: -1 3 -1 -1 -1 
output match: -1 -1 -1 1 -1 
20 | network_0/router_1_1/sw_allocator | Input grants = [ 1 -> 3  ], output grants = [ 3 -> 1  ].
20 | network_0/router_1_1 | Assigning output 3.0 to VC 0 at input 1.0.
20 | network_0/router_1_1 | Beginning crossbar traversal for flit 12 from input 1.0 to output 3.0.
20 | network_0/router_1_1 | Completed VC allocation for VC 0 at input 4 (front: 20).
20 | network_0/router_1_1 |   No output VC allocated.
20 | network_0/router_1_1 | Completed switch allocation for VC 0 at input 1 (front: 13).
20 | network_0/router_1_1 |   Scheduling switch connection from input 1.0 to output 3.0.
20 | network_0/router_1_1 | Completed crossbar traversal for flit 12 from input 1.0 to output 3.0.
20 | network_0/router_1_1 | Buffering flit 12 at output 3.
20 | network_0/network_0_fchan_egress0 | Completed channel traversal for flit 3.
20 | network_0/network_0_fchan_egress2 | Completed channel traversal for flit 7.
20 | network_0/router_1_1 | Sending flit 12 to channel at output 3.
21 | node0 | Ejecting flit 3 (packet 0) from VC 0.
21 | node2 | Ejecting flit 7 (packet 1) from VC 0.
21 | network_0/network_0_fchan_15 | Beginning channel traversal for flit 12 with delay 1.
21 | traffic_manager | Selected output VC 0 is full for flit 18.
21 | traffic_manager | Selected output VC 0 is full for flit 10.
21 | traffic_manager | Finding output VC for flit 24:
21 | traffic_manager |   Output VC 0 is busy.
21 | traffic_manager | No output VC found for flit 24.
21 | traffic_manager | Selected output VC 0 is full for flit 22.
21 | node0 | Injecting credit for VC 0 into subnet 0.
21 | node0 | Retiring flit 3 (packet 0, src = 1, dest = -1, hops = 2, flat = 12).
21 | node0 | Retiring packet 0 (plat = 18, nlat = 18, frag = 5, src = 1, dest = 0).
21 | node2 | Injecting credit for VC 0 into subnet 0.
21 | node2 | Retiring flit 7 (packet 1, src = 3, dest = -1, hops = 2, flat = 12).
21 | node2 | Retiring packet 1 (plat = 18, nlat = 18, frag = 5, src = 3, dest = 2).
21 | network_0/router_0_0 | Beginning VC allocation for VC 0 at input 4 (front: 16).
21 | network_0/router_0_0 |   VC 0 at output 4 is in use by VC 0 at input 0 (empty).
grants: -1 -1 -1 -1 -1 
aptrs: 0 0 0 0 0 
input match: -1 -1 -1 -1 -1 
output match: -1 -1 -1 -1 -1 
21 | network_0/router_0_0 | Completed VC allocation for VC 0 at input 4 (front: 16).
21 | network_0/router_0_0 |   No output VC allocated.
21 | network_0/router_0_1 | Beginning switch allocation for VC 0 at input 4 (front: 9).
21 | network_0/router_0_1 |   Requesting output 2.0 (non-spec, pri: 0).
21 | network_0/router_0_1/sw_allocator | Input requests = [ 4 -> [ 2@0 ]  ], output requests = [ 2 -> [ 4@0 ]  ].
grants: -1 -1 4 -1 -1 
aptrs: 0 0 0 0 3 
input match: -1 -1 -1 -1 2 
output match: -1 -1 4 -1 -1 
21 | network_0/router_0_1/sw_allocator | Input grants = [ 4 -> 2  ], output grants = [ 2 -> 4  ].
21 | network_0/router_0_1 | Assigning output 2.0 to VC 0 at input 4.0.
21 | network_0/router_0_1 | Beginning crossbar traversal for flit 8 from input 4.0 to output 2.0.
21 | network_0/router_0_1 | Completed switch allocation for VC 0 at input 4 (front: 9).
21 | network_0/router_0_1 |   Scheduling switch connection from input 4.0 to output 2.0.
21 | network_0/router_0_1 | Completed crossbar traversal for flit 8 from input 4.0 to output 2.0.
21 | network_0/router_0_1 | Buffering flit 8 at output 2.
21 | network_0/router_1_0 | Beginning switch allocation for VC 0 at input 4 (front: 14).
21 | network_0/router_1_0 |   VC 0 at output 0 is full.
grants: -1 -1 -1 -1 -1 
aptrs: 0 0 0 0 1 
input match: -1 -1 -1 -1 -1 
output match: -1 -1 -1 -1 -1 
21 | network_0/router_1_0 | Completed switch allocation for VC 0 at input 4 (front: 14).
21 | network_0/router_1_0 |   No output port allocated.
21 | network_0/router_1_1 | Beginning VC allocation for VC 0 at input 4 (front: 20).
21 | network_0/router_1_1 |   VC 0 at output 1 is in use by VC 0 at input 4 (front flit: 20).
grants: -1 -1 -1 -1 -1 
aptrs: 0 4 0 0 2 
input match: -1 -1 -1 -1 -1 
output match: -1 -1 -1 -1 -1 
21 | network_0/router_1_1 | Beginning crossbar traversal for flit 13 from input 1.0 to output 3.0.
21 | network_0/router_1_1 | Completed VC allocation for VC 0 at input 4 (front: 20).
21 | network_0/router_1_1 |   No output VC allocated.
21 | network_0/router_1_1 | Completed crossbar traversal for flit 13 from input 1.0 to output 3.0.
21 | network_0/router_1_1 | Buffering flit 13 at output 3.
21 | network_0/network_0_fchan_15 | Completed channel traversal for flit 12.
21 | network_0/router_0_1 | Sending flit 8 to channel at output 2.
21 | network_0/router_1_1 | Sending flit 13 to channel at output 3.
22 | network_0/network_0_fchan_6 | Beginning channel traversal for flit 8 with delay 1.
22 | network_0/network_0_fchan_15 | Beginning channel traversal for flit 13 with delay 1.
22 | network_0/router_0_1 | Received flit 12 from channel at input 2.
22 | traffic_manager | Selected output VC 0 is full for flit 18.
22 | node1 | Injecting flit 10 into subnet 0 at time 22 with priority 0.
22 | traffic_manager | Finding output VC for flit 24:
22 | traffic_manager |   Output VC 0 is busy.
22 | traffic_manager | No output VC found for flit 24.
22 | traffic_manager | Selected output VC 0 is full for flit 22.
22 | network_0/router_0_0 | Beginning VC allocation for VC 0 at input 4 (front: 16).
22 | network_0/router_0_0 |   VC 0 at output 4 is in use by VC 0 at input 0 (empty).
grants: -1 -1 -1 -1 -1 
aptrs: 0 0 0 0 0 
input match: -1 -1 -1 -1 -1 
output match: -1 -1 -1 -1 -1 
22 | network_0/router_0_0 | Completed VC allocation for VC 0 at input 4 (front: 16).
22 | network_0/router_0_0 |   No output VC allocated.
22 | network_0/router_0_1 | Adding flit 12 to VC 0 at input 2 (state: idle, empty).
22 | network_0/router_0_1 | Using precomputed lookahead routing information for VC 0 at input 2 (front: 12).
22 | network_0/router_0_1/buf_2/vc_0 | Changing state from idle to vc_alloc.
22 | network_0/router_0_1 | Beginning VC allocation for VC 0 at input 2 (front: 12).
22 | network_0/router_0_1 |   Requesting VC 0 at output 4 (in_pri: 0, out_pri: 0).
22 | network_0/router_0_1/vc_allocator | Input requests = [ 2 -> [ 4@0 ]  ], output requests = [ 4 -> [ 2@0 ]  ].
grants: -1 -1 -1 -1 2 
aptrs: 0 0 0 0 3 
input match: -1 -1 4 -1 -1 
output match: -1 -1 -1 -1 2 
22 | network_0/router_0_1/vc_allocator | Input grants = [ 2 -> 4  ], output grants = [ 4 -> 2  ].
22 | network_0/router_0_1 | Assigning VC 0 at output 4 to VC 0 at input 2.
22 | network_0/router_0_1 | Beginning crossbar traversal for flit 9 from input 4.0 to output 2.0.
22 | network_0/router_0_1 | Completed VC allocation for VC 0 at input 2 (front: 12).
22 | network_0/router_0_1 |   Acquiring assigned VC 0 at output 4.
22 | network_0/router_0_1/buf_2/vc_0 | Changing state from vc_alloc to active.
22 | network_0/router_0_1 | Completed crossbar traversal for flit 9 from input 4.0 to output 2.0.
22 | network_0/router_0_1 | Buffering flit 9 at output 2.
22 | network_0/router_1_0 | Beginning switch allocation for VC 0 at input 4 (front: 14).
22 | network_0/router_1_0 |   VC 0 at output 0 is full.
grants: -1 -1 -1 -1 -1 
aptrs: 0 0 0 0 1 
input match: -1 -1 -1 -1 -1 
output match: -1 -1 -1 -1 -1 
22 | network_0/router_1_0 | Completed switch allocation for VC 0 at input 4 (front: 14).
22 | network_0/router_1_0 |   No output port allocated.
22 | network_0/router_1_1 | Beginning VC allocation for VC 0 at input 4 (front: 20).
22 | network_0/router_1_1 |   Requesting VC 0 at output 1 (in_pri: 0, out_pri: 0).
22 | network_0/router_1_1/vc_allocator | Input requests = [ 4 -> [ 1@0 ]  ], output requests = [ 1 -> [ 4@0 ]  ].
grants: -1 4 -1 -1 -1 
aptrs: 0 4 0 0 2 
input match: -1 -1 -1 -1 1 
output match: -1 4 -1 -1 -1 
22 | network_0/router_1_1/vc_allocator | Input grants = [ 4 -> 1  ], output grants = [ 1 -> 4  ].
22 | network_0/router_1_1 | Assigning VC 0 at output 1 to VC 0 at input 4.
22 | network_0/router_1_1 | Completed VC allocation for VC 0 at input 4 (front: 20).
22 | network_0/router_1_1 |   Acquiring assigned VC 0 at output 1.
22 | network_0/router_1_1/buf_4/vc_0 | Changing state from vc_alloc to active.
22 | network_0/network_0_fchan_6 | Completed channel traversal for flit 8.
22 | network_0/network_0_fchan_15 | Completed channel traversal for flit 13.
22 | network_0/router_0_1 | Sending flit 9 to channel at output 2.
23 | network_0/network_0_fchan_ingress1 | Beginning channel traversal for flit 10 with delay 1.
23 | network_0/network_0_fchan_6 | Beginning channel traversal for flit 9 with delay 1.
23 | network_0/router_0_1 | Received flit 13 from channel at input 2.
23 | network_0/router_1_1 | Received flit 8 from channel at input 3.
23 | traffic_manager | Selected output VC 0 is full for flit 18.
23 | node1 | Injecting flit 11 into subnet 0 at time 23 with priority 0.
23 | traffic_manager | Finding output VC for flit 24:
23 | traffic_manager |   Output VC 0 is busy.
23 | traffic_manager | No output VC found for flit 24.
23 | traffic_manager | Selected output VC 0 is full for flit 22.
23 | network_0/router_0_0 | Beginning VC allocation for VC 0 at input 4 (front: 16).
23 | network_0/router_0_0 |   VC 0 at output 4 is in use by VC 0 at input 0 (empty).
grants: -1 -1 -1 -1 -1 
aptrs: 0 0 0 0 0 
input match: -1 -1 -1 -1 -1 
output match: -1 -1 -1 -1 -1 
23 | network_0/router_0_0 | Completed VC allocation for VC 0 at input 4 (front: 16).
23 | network_0/router_0_0 |   No output VC allocated.
23 | network_0/router_0_1 | Adding flit 13 to VC 0 at input 2 (state: active, front: 12).
23 | network_0/router_0_1 | Beginning switch allocation for VC 0 at input 2 (front: 12).
23 | network_0/router_0_1 |   Requesting output 4.0 (non-spec, pri: 0).
23 | network_0/router_0_1/sw_allocator | Input requests = [ 2 -> [ 4@0 ]  ], output requests = [ 4 -> [ 2@0 ]  ].
grants: -1 -1 -1 -1 2 
aptrs: 0 0 0 0 3 
input match: -1 -1 4 -1 -1 
output match: -1 -1 -1 -1 2 
23 | network_0/router_0_1/sw_allocator | Input grants = [ 2 -> 4  ], output grants = [ 4 -> 2  ].
23 | network_0/router_0_1 | Assigning output 4.0 to VC 0 at input 2.0.
23 | network_0/router_0_1 | Completed switch allocation for VC 0 at input 2 (front: 12).
23 | network_0/router_0_1 |   Scheduling switch connection from input 2.0 to output 4.0.
23 | network_0/router_1_0 | Beginning switch allocation for VC 0 at input 4 (front: 14).
23 | network_0/router_1_0 |   Requesting output 0.0 (non-spec, pri: 0).
23 | network_0/router_1_0/sw_allocator | Input requests = [ 4 -> [ 0@0 ]  ], output requests = [ 0 -> [ 4@0 ]  ].
grants: 4 -1 -1 -1 -1 
aptrs: 0 0 0 0 1 
input match: -1 -1 -1 -1 0 
output match: 4 -1 -1 -1 -1 
23 | network_0/router_1_0/sw_allocator | Input grants = [ 4 -> 0  ], output grants = [ 0 -> 4  ].
23 | network_0/router_1_0 | Assigning output 0.0 to VC 0 at input 4.0.
23 | network_0/router_1_0 | Completed switch allocation for VC 0 at input 4 (front: 14).
23 | network_0/router_1_0 |   Scheduling switch connection from input 4.0 to output 0.0.
23 | network_0/router_1_1 | Adding flit 8 to VC 0 at input 3 (state: idle, empty).
23 | network_0/router_1_1 | Using precomputed lookahead routing information for VC 0 at input 3 (front: 8).
23 | network_0/router_1_1/buf_3/vc_0 | Changing state from idle to vc_alloc.
23 | network_0/router_1_1 | Beginning VC allocation for VC 0 at input 3 (front: 8).
23 | network_0/router_1_1 |   Requesting VC 0 at output 4 (in_pri: 0, out_pri: 0).
23 | network_0/router_1_1/vc_allocator | Input requests = [ 3 -> [ 4@0 ]  ], output requests = [ 4 -> [ 3@0 ]  ].
grants: -1 -1 -1 -1 3 
aptrs: 0 4 0 0 2 
input match: -1 -1 -1 4 -1 
output match: -1 -1 -1 -1 3 
23 | network_0/router_1_1/vc_allocator | Input grants = [ 3 -> 4  ], output grants = [ 4 -> 3  ].
23 | network_0/router_1_1 | Assigning VC 0 at output 4 to VC 0 at input 3.
23 | network_0/router_1_1 | Beginning switch allocation for VC 0 at input 4 (front: 20).
23 | network_0/router_1_1 |   Requesting output 1.0 (non-spec, pri: 0).
23 | network_0/router_1_1/sw_allocator | Input requests = [ 4 -> [ 1@0 ]  ], output requests = [ 1 -> [ 4@0 ]  ].
grants: -1 4 -1 -1 -1 
aptrs: 0 4 0 0 2 
input match: -1 -1 -1 -1 1 
output match: -1 4 -1 -1 -1 
23 | network_0/router_1_1/sw_allocator | Input grants = [ 4 -> 1  ], output grants = [ 1 -> 4  ].
23 | network_0/router_1_1 | Assigning output 1.0 to VC 0 at input 4.0.
23 | network_0/router_1_1 | Completed VC allocation for VC 0 at input 3 (front: 8).
23 | network_0/router_1_1 |   Acquiring assigned VC 0 at output 4.
23 | network_0/router_1_1/buf_3/vc_0 | Changing state from vc_alloc to active.
23 | network_0/router_1_1 | Completed switch allocation for VC 0 at input 4 (front: 20).
23 | network_0/router_1_1 |   Scheduling switch connection from input 4.0 to output 1.0.
23 | network_0/router_1_1 | Updating lookahead routing information for flit 20.
23 | network_0/router_1_0 | Adding VC range [0,0] at output port 4 for flit 20 (input port 0, destination 2).
23 | network_0/network_0_fchan_ingress1 | Completed channel traversal for flit 10.
23 | network_0/network_0_fchan_6 | Completed channel traversal for flit 9.
24 | network_0/network_0_fchan_ingress1 | Beginning channel traversal for flit 11 with delay 1.
24 | network_0/router_0_1 | Received flit 10 from channel at input 4.
24 | network_0/router_1_1 | Received flit 9 from channel at input 3.
24 | node1 | Enqueuing packet 7 at time 13.
24 | node1 | Enqueuing flit 28 (packet 7) at time 13.
24 | node1 | Enqueuing flit 29 (packet 7) at time 13.
24 | node1 | Enqueuing flit 30 (packet 7) at time 13.
24 | node1 | Enqueuing flit 31 (packet 7) at time 13.
24 | traffic_manager | Selected output VC 0 is full for flit 18.
24 | traffic_manager | Finding output VC for flit 28:
24 | traffic_manager |   Output VC 0 is busy.
24 | traffic_manager | No output VC found for flit 28.
24 | traffic_manager | Finding output VC for flit 24:
24 | traffic_manager |   Output VC 0 is busy.
24 | traffic_manager | No output VC found for flit 24.
24 | traffic_manager | Selected output VC 0 is full for flit 22.
24 | network_0/router_0_0 | Beginning VC allocation for VC 0 at input 4 (front: 16).
24 | network_0/router_0_0 |   VC 0 at output 4 is in use by VC 0 at input 0 (empty).
grants: -1 -1 -1 -1 -1 
aptrs: 0 0 0 0 0 
input match: -1 -1 -1 -1 -1 
output match: -1 -1 -1 -1 -1 
24 | network_0/router_0_0 | Completed VC allocation for VC 0 at input 4 (front: 16).
24 | network_0/router_0_0 |   No output VC allocated.
24 | network_0/router_0_1 | Adding flit 10 to VC 0 at input 4 (state: active, empty).
24 | network_0/router_0_1 | Beginning switch allocation for VC 0 at input 2 (front: 13).
24 | network_0/router_0_1 |   Requesting output 4.0 (non-spec, pri: 0).
24 | network_0/router_0_1 | Beginning switch allocation for VC 0 at input 4 (front: 10).
24 | network_0/router_0_1 |   VC 0 at output 2 is full.
24 | network_0/router_0_1/sw_allocator | Input requests = [ 2 -> [ 4@0 ]  ], output requests = [ 4 -> [ 2@0 ]  ].
grants: -1 -1 -1 -1 2 
aptrs: 0 0 0 0 3 
input match: -1 -1 4 -1 -1 
output match: -1 -1 -1 -1 2 
24 | network_0/router_0_1/sw_allocator | Input grants = [ 2 -> 4  ], output grants = [ 4 -> 2  ].
24 | network_0/router_0_1 | Assigning output 4.0 to VC 0 at input 2.0.
24 | network_0/router_0_1 | Beginning crossbar traversal for flit 12 from input 2.0 to output 4.0.
24 | network_0/router_0_1 | Completed switch allocation for VC 0 at input 2 (front: 13).
24 | network_0/router_0_1 |   Scheduling switch connection from input 2.0 to output 4.0.
24 | network_0/router_0_1 | Completed switch allocation for VC 0 at input 4 (front: 10).
24 | network_0/router_0_1 |   No output port allocated.
24 | network_0/router_0_1 | Completed crossbar traversal for flit 12 from input 2.0 to output 4.0.
24 | network_0/router_0_1 | Buffering flit 12 at output 4.
24 | network_0/router_1_0 | Beginning switch allocation for VC 0 at input 4 (front: 15).
24 | network_0/router_1_0 |   Requesting output 0.0 (non-spec, pri: 0).
24 | network_0/router_1_0/sw_allocator | Input requests = [ 4 -> [ 0@0 ]  ], output requests = [ 0 -> [ 4@0 ]  ].
grants: 4 -1 -1 -1 -1 
aptrs: 0 0 0 0 1 
input match: -1 -1 -1 -1 0 
output match: 4 -1 -1 -1 -1 
24 | network_0/router_1_0/sw_allocator | Input grants = [ 4 -> 0  ], output grants = [ 0 -> 4  ].
24 | network_0/router_1_0 | Assigning output 0.0 to VC 0 at input 4.0.
24 | network_0/router_1_0 | Beginning crossbar traversal for flit 14 from input 4.0 to output 0.0.
24 | network_0/router_1_0 | Completed switch allocation for VC 0 at input 4 (front: 15).
24 | network_0/router_1_0 |   Scheduling switch connection from input 4.0 to output 0.0.
24 | network_0/router_1_0 | Completed crossbar traversal for flit 14 from input 4.0 to output 0.0.
24 | network_0/router_1_0 | Buffering flit 14 at output 0.
24 | network_0/router_1_1 | Adding flit 9 to VC 0 at input 3 (state: active, front: 8).
24 | network_0/router_1_1 | Beginning switch allocation for VC 0 at input 3 (front: 8).
24 | network_0/router_1_1 |   Requesting output 4.0 (non-spec, pri: 0).
24 | network_0/router_1_1 | Beginning switch allocation for VC 0 at input 4 (front: 21).
24 | network_0/router_1_1 |   Requesting output 1.0 (non-spec, pri: 0).
24 | network_0/router_1_1/sw_allocator | Input requests = [ 3 -> [ 4@0 ]  4 -> [ 1@0 ]  ], output requests = [ 1 -> [ 4@0 ]  4 -> [ 3@0 ]  ].
grants: -1 4 -1 -1 3 
aptrs: 0 4 0 0 2 
input match: -1 -1 -1 4 1 
output match: -1 4 -1 -1 3 
24 | network_0/router_1_1/sw_allocator | Input grants = [ 3 -> 4  4 -> 1  ], output grants = [ 1 -> 4  4 -> 3  ].
24 | network_0/router_1_1 | Assigning output 4.0 to VC 0 at input 3.0.
24 | network_0/router_1_1 | Assigning output 1.0 to VC 0 at input 4.0.
24 | network_0/router_1_1 | Beginning crossbar traversal for flit 20 from input 4.0 to output 1.0.
24 | network_0/router_1_1 | Completed switch allocation for VC 0 at input 3 (front: 8).
24 | network_0/router_1_1 |   Scheduling switch connection from input 3.0 to output 4.0.
24 | network_0/router_1_1 | Completed switch allocation for VC 0 at input 4 (front: 21).
24 | network_0/router_1_1 |   Scheduling switch connection from input 4.0 to output 1.0.
24 | network_0/router_1_1 | Completed crossbar traversal for flit 20 from input 4.0 to output 1.0.
24 | network_0/router_1_1 | Buffering flit 20 at output 1.
24 | network_0/network_0_fchan_ingress1 | Completed channel traversal for flit 11.
24 | network_0/router_0_1 | Sending flit 12 to channel at output 4.
24 | network_0/router_1_0 | Sending flit 14 to channel at output 0.
24 | network_0/router_1_1 | Sending flit 20 to channel at output 1.
25 | network_0/network_0_fchan_egress1 | Beginning channel traversal for flit 12 with delay 1.
25 | network_0/network_0_fchan_8 | Beginning channel traversal for flit 14 with delay 1.
25 | network_0/network_0_fchan_13 | Beginning channel traversal for flit 20 with delay 1.
25 | network_0/router_0_1 | Received flit 11 from channel at input 4.
25 | traffic_manager | Selected output VC 0 is full for flit 18.
25 | traffic_manager | Finding output VC for flit 28:
25 | traffic_manager |   Output VC 0 is busy.
25 | traffic_manager | No output VC found for flit 28.
25 | traffic_manager | Finding output VC for flit 24:
25 | traffic_manager |   Output VC 0 is busy.
25 | traffic_manager | No output VC found for flit 24.
25 | node3 | Injecting flit 22 into subnet 0 at time 25 with priority 0.
25 | network_0/router_0_0 | Beginning VC allocation for VC 0 at input 4 (front: 16).
25 | network_0/router_0_0 |   Requesting VC 0 at output 4 (in_pri: 0, out_pri: 0).
25 | network_0/router_0_0/vc_allocator | Input requests = [ 4 -> [ 4@0 ]  ], output requests = [ 4 -> [ 4@0 ]  ].
grants: -1 -1 -1 -1 4 
aptrs: 0 0 0 0 0 
input match: -1 -1 -1 -1 4 
output match: -1 -1 -1 -1 4 
25 | network_0/router_0_0/vc_allocator | Input grants = [ 4 -> 4  ], output grants = [ 4 -> 4  ].
25 | network_0/router_0_0 | Assigning VC 0 at output 4 to VC 0 at input 4.
25 | network_0/router_0_0 | Completed VC allocation for VC 0 at input 4 (front: 16).
25 | network_0/router_0_0 |   Acquiring assigned VC 0 at output 4.
25 | network_0/router_0_0/buf_4/vc_0 | Changing state from vc_alloc to active.
25 | network_0/router_0_1 | Adding flit 11 to VC 0 at input 4 (state: active, front: 10).
25 | network_0/router_0_1 | Beginning switch allocation for VC 0 at input 4 (front: 10).
25 | network_0/router_0_1 |   VC 0 at output 2 is full.
grants: -1 -1 -1 -1 -1 
aptrs: 0 0 0 0 3 
input match: -1 -1 -1 -1 -1 
output match: -1 -1 -1 -1 -1 
25 | network_0/router_0_1 | Beginning crossbar traversal for flit 13 from input 2.0 to output 4.0.
25 | network_0/router_0_1 | Completed switch allocation for VC 0 at input 4 (front: 10).
25 | network_0/router_0_1 |   No output port allocated.
25 | network_0/router_0_1 | Completed crossbar traversal for flit 13 from input 2.0 to output 4.0.
25 | network_0/router_0_1 | Buffering flit 13 at output 4.
25 | network_0/router_1_0 | Beginning crossbar traversal for flit 15 from input 4.0 to output 0.0.
25 | network_0/router_1_0 | Completed crossbar traversal for flit 15 from input 4.0 to output 0.0.
25 | network_0/router_1_0 | Buffering flit 15 at output 0.
25 | network_0/router_1_1 | Beginning switch allocation for VC 0 at input 3 (front: 9).
25 | network_0/router_1_1 |   Requesting output 4.0 (non-spec, pri: 0).
25 | network_0/router_1_1/sw_allocator | Input requests = [ 3 -> [ 4@0 ]  ], output requests = [ 4 -> [ 3@0 ]  ].
grants: -1 -1 -1 -1 3 
aptrs: 0 4 0 0 2 
input match: -1 -1 -1 4 -1 
output match: -1 -1 -1 -1 3 
25 | network_0/router_1_1/sw_allocator | Input grants = [ 3 -> 4  ], output grants = [ 4 -> 3  ].
25 | network_0/router_1_1 | Assigning output 4.0 to VC 0 at input 3.0.
25 | network_0/router_1_1 | Beginning crossbar traversal for flit 8 from input 3.0 to output 4.0.
25 | network_0/router_1_1 | Beginning crossbar traversal for flit 21 from input 4.0 to output 1.0.
25 | network_0/router_1_1 | Completed switch allocation for VC 0 at input 3 (front: 9).
25 | network_0/router_1_1 |   Scheduling switch connection from input 3.0 to output 4.0.
25 | network_0/router_1_1 | Completed crossbar traversal for flit 8 from input 3.0 to output 4.0.
25 | network_0/router_1_1 | Buffering flit 8 at output 4.
25 | network_0/router_1_1 | Completed crossbar traversal for flit 21 from input 4.0 to output 1.0.
25 | network_0/router_1_1 | Buffering flit 21 at output 1.
25 | network_0/network_0_fchan_egress1 | Completed channel traversal for flit 12.
25 | network_0/network_0_fchan_8 | Completed channel traversal for flit 14.
25 | network_0/network_0_fchan_13 | Completed channel traversal for flit 20.
25 | network_0/router_0_1 | Sending flit 13 to channel at output 4.
25 | network_0/router_1_0 | Sending flit 15 to channel at output 0.
25 | network_0/router_1_1 | Sending flit 21 to channel at output 1.
25 | network_0/router_1_1 | Sending flit 8 to channel at output 4.
26 | node1 | Ejecting flit 12 (packet 3) from VC 0.
26 | network_0/network_0_fchan_ingress3 | Beginning channel traversal for flit 22 with delay 1.
26 | network_0/network_0_fchan_egress1 | Beginning channel traversal for flit 13 with delay 1.
26 | network_0/network_0_fchan_egress3 | Beginning channel traversal for flit 8 with delay 1.
26 | network_0/network_0_fchan_8 | Beginning channel traversal for flit 15 with delay 1.
26 | network_0/network_0_fchan_13 | Beginning channel traversal for flit 21 with delay 1.
26 | network_0/router_1_0 | Received flit 20 from channel at input 0.
26 | network_0/router_1_1 | Received flit 14 from channel at input 1.
26 | traffic_manager | Selected output VC 0 is full for flit 18.
26 | traffic_manager | Finding output VC for flit 28:
26 | traffic_manager |   Output VC 0 is busy.
26 | traffic_manager | No output VC found for flit 28.
26 | traffic_manager | Finding output VC for flit 24:
26 | traffic_manager |   Selected output VC 0.
26 | network_0/router_1_0 | Adding VC range [0,0] at output port 4 for flit 24 (input port 4, destination 2).
26 | node2 | Generating lookahead routing info for flit 24.
26 | node2 | Injecting flit 24 into subnet 0 at time 26 with priority 0.
26 | node3 | Injecting flit 23 into subnet 0 at time 26 with priority 0.
26 | node1 | Injecting credit for VC 0 into subnet 0.
[...]
output match: -1 -1 -1 -1 -1 
grants: -1 -1 -1 -1 -1 
aptrs: 3 0 0 0 1 
input match: -1 -1 -1 -1 -1 
output match: -1 -1 -1 -1 -1 
grants: -1 -1 -1 -1 -1 
aptrs: 0 3 0 0 2 
input match: -1 -1 -1 -1 -1 
output match: -1 -1 -1 -1 -1 
grants: -1 -1 -1 -1 -1 
aptrs: 0 3 0 0 2 
input match: -1 -1 -1 -1 -1 
output match: -1 -1 -1 -1 -1 
grants: -1 -1 -1 -1 -1 
aptrs: 0 0 0 0 0 
input match: -1 -1 -1 -1 -1 
output match: -1 -1 -1 -1 -1 
grants: -1 -1 -1 -1 3 
aptrs: 0 0 0 0 0 
input match: -1 -1 -1 4 -1 
output match: -1 -1 -1 -1 3 
grants: -1 -1 -1 -1 -1 
aptrs: 3 0 0 0 1 
input match: -1 -1 -1 -1 -1 
output match: -1 -1 -1 -1 -1 
grants: -1 -1 -1 -1 -1 
aptrs: 0 3 0 0 2 
input match: -1 -1 -1 -1 -1 
output match: -1 -1 -1 -1 -1 
grants: -1 -1 -1 -1 -1 
aptrs: 0 3 0 0 2 
input match: -1 -1 -1 -1 -1 
output match: -1 -1 -1 -1 -1 
grants: -1 -1 -1 -1 -1 
aptrs: 0 0 0 0 0 
input match: -1 -1 -1 -1 -1 
output match: -1 -1 -1 -1 -1 
grants: -1 -1 -1 -1 -1 
aptrs: 0 0 0 0 0 
input match: -1 -1 -1 -1 -1 
output match: -1 -1 -1 -1 -1 
grants: -1 -1 -1 -1 3 
aptrs: 0 0 0 0 0 
input match: -1 -1 -1 4 -1 
output match: -1 -1 -1 -1 3 
grants: -1 -1 -1 -1 -1 
aptrs: 3 0 0 0 1 
input match: -1 -1 -1 -1 -1 
output match: -1 -1 -1 -1 -1 
grants: -1 -1 -1 -1 -1 
aptrs: 0 3 0 0 2 
input match: -1 -1 -1 -1 -1 
output match: -1 -1 -1 -1 -1 
grants: -1 -1 -1 -1 -1 
aptrs: 0 3 0 0 2 
input match: -1 -1 -1 -1 -1 
output match: -1 -1 -1 -1 -1 
grants: -1 -1 -1 -1 4 
aptrs: 0 0 0 0 0 
input match: -1 -1 -1 -1 4 
output match: -1 -1 -1 -1 4 
grants: -1 -1 -1 -1 -1 
aptrs: 0 0 0 0 0 
input match: -1 -1 -1 -1 -1 
output match: -1 -1 -1 -1 -1 
grants: -1 -1 -1 -1 3 
aptrs: 0 0 0 0 0 
input match: -1 -1 -1 4 -1 
output match: -1 -1 -1 -1 3 
grants: -1 -1 -1 -1 -1 
aptrs: 3 0 0 0 1 
input match: -1 -1 -1 -1 -1 
output match: -1 -1 -1 -1 -1 
grants: -1 -1 -1 -1 -1 
aptrs: 0 3 0 0 2 
input match: -1 -1 -1 -1 -1 
output match: -1 -1 -1 -1 -1 
grants: -1 -1 -1 -1 -1 
aptrs: 0 3 0 0 2 
input match: -1 -1 -1 -1 -1 
output match: -1 -1 -1 -1 -1 
grants: -1 -1 -1 -1 4 
aptrs: 0 0 0 0 0 
input match: -1 -1 -1 -1 4 
output match: -1 -1 -1 -1 4 
grants: -1 -1 -1 -1 -1 
aptrs: 0 0 0 0 0 
input match: -1 -1 -1 -1 -1 
output match: -1 -1 -1 -1 -1 
grants: -1 -1 -1 -1 -1 
aptrs: 3 0 0 0 1 
input match: -1 -1 -1 -1 -1 
output match: -1 -1 -1 -1 -1 
grants: -1 -1 -1 -1 -1 
aptrs: 0 3 0 0 2 
input match: -1 -1 -1 -1 -1 
output match: -1 -1 -1 -1 -1 
grants: -1 -1 -1 -1 -1 
aptrs: 0 3 0 0 2 
input match: -1 -1 -1 -1 -1 
output match: -1 -1 -1 -1 -1 
grants: -1 -1 -1 -1 -1 
aptrs: 0 0 0 0 0 
input match: -1 -1 -1 -1 -1 
output match: -1 -1 -1 -1 -1 
grants: -1 -1 -1 -1 -1 
aptrs: 3 0 0 0 1 
input match: -1 -1 -1 -1 -1 
output match: -1 -1 -1 -1 -1 
grants: -1 -1 -1 -1 -1 
aptrs: 0 3 0 0 2 
input match: -1 -1 -1 -1 -1 
output match: -1 -1 -1 -1 -1 
grants: -1 -1 1 -1 -1 
aptrs: 0 3 0 0 2 
input match: -1 2 -1 -1 -1 
output match: -1 -1 1 -1 -1 
grants: -1 -1 -1 -1 -1 
aptrs: 0 0 0 0 0 
input match: -1 -1 -1 -1 -1 
output match: -1 -1 -1 -1 -1 
grants: -1 -1 -1 -1 -1 
aptrs: 3 0 0 0 1 
input match: -1 -1 -1 -1 -1 
output match: -1 -1 -1 -1 -1 
grants: -1 -1 -1 -1 -1 
aptrs: 0 3 0 0 2 
input match: -1 -1 -1 -1 -1 
output match: -1 -1 -1 -1 -1 
grants: -1 -1 1 -1 -1 
aptrs: 0 3 0 0 2 
input match: -1 2 -1 -1 -1 
output match: -1 -1 1 -1 -1 
grants: -1 -1 -1 -1 -1 
aptrs: 0 0 0 0 0 
input match: -1 -1 -1 -1 -1 
output match: -1 -1 -1 -1 -1 
grants: -1 -1 -1 -1 -1 
aptrs: 3 0 0 0 1 
input match: -1 -1 -1 -1 -1 
output match: -1 -1 -1 -1 -1 
grants: -1 -1 -1 -1 -1 
aptrs: 0 3 0 0 2 
input match: -1 -1 -1 -1 -1 
output match: -1 -1 -1 -1 -1 
grants: -1 -1 -1 -1 -1 
aptrs: 0 0 0 0 0 
input match: -1 -1 -1 -1 -1 
output match: -1 -1 -1 -1 -1 
grants: -1 -1 -1 -1 -1 
aptrs: 3 0 0 0 1 
input match: -1 -1 -1 -1 -1 
output match: -1 -1 -1 -1 -1 
grants: -1 -1 -1 -1 -1 
aptrs: 0 3 0 0 2 
input match: -1 -1 -1 -1 -1 
output match: -1 -1 -1 -1 -1 
grants: -1 -1 -1 -1 -1 
aptrs: 0 0 0 0 0 
input match: -1 -1 -1 -1 -1 
output match: -1 -1 -1 -1 -1 
grants: -1 -1 -1 -1 3 
aptrs: 0 0 0 0 0 
input match: -1 -1 -1 4 -1 
output match: -1 -1 -1 -1 3 
grants: -1 -1 -1 -1 -1 
aptrs: 3 0 0 0 1 
input match: -1 -1 -1 -1 -1 
output match: -1 -1 -1 -1 -1 
grants: -1 -1 -1 -1 -1 
aptrs: 0 3 0 0 2 
input match: -1 -1 -1 -1 -1 
output match: -1 -1 -1 -1 -1 
grants: -1 -1 -1 -1 -1 
aptrs: 0 0 0 0 0 
input match: -1 -1 -1 -1 -1 
output match: -1 -1 -1 -1 -1 
grants: -1 -1 -1 -1 3 
aptrs: 0 0 0 0 0 
input match: -1 -1 -1 4 -1 
output match: -1 -1 -1 -1 3 
grants: 4 -1 -1 -1 -1 
aptrs: 3 0 0 0 1 
input match: -1 -1 -1 -1 0 
output match: 4 -1 -1 -1 -1 
grants: -1 -1 -1 -1 -1 
aptrs: 0 3 0 0 2 
input match: -1 -1 -1 -1 -1 
output match: -1 -1 -1 -1 -1 
grants: -1 -1 -1 -1 -1 
aptrs: 0 0 0 0 0 
input match: -1 -1 -1 -1 -1 
output match: -1 -1 -1 -1 -1 
grants: 4 -1 -1 -1 -1 
aptrs: 3 0 0 0 1 
input match: -1 -1 -1 -1 0 
output match: 4 -1 -1 -1 -1 
grants: -1 -1 -1 -1 -1 
aptrs: 0 3 0 0 2 
input match: -1 -1 -1 -1 -1 
output match: -1 -1 -1 -1 -1 
grants: -1 -1 -1 -1 -1 
aptrs: 0 0 0 0 0 
input match: -1 -1 -1 -1 -1 
output match: -1 -1 -1 -1 -1 
grants: 4 -1 -1 -1 -1 
aptrs: 3 0 0 0 1 
input match: -1 -1 -1 -1 0 
output match: 4 -1 -1 -1 -1 
grants: -1 -1 -1 -1 -1 
aptrs: 0 3 0 0 2 
input match: -1 -1 -1 -1 -1 
output match: -1 -1 -1 -1 -1 
grants: -1 -1 -1 -1 -1 
aptrs: 0 0 0 0 0 
input match: -1 -1 -1 -1 -1 
output match: -1 -1 -1 -1 -1 
grants: -1 -1 4 -1 -1 
aptrs: 0 3 0 0 2 
input match: -1 -1 -1 -1 2 
output match: -1 -1 4 -1 -1 
grants: -1 -1 -1 -1 -1 
aptrs: 0 0 0 0 0 
input match: -1 -1 -1 -1 -1 
output match: -1 -1 -1 -1 -1 
grants: -1 -1 -1 -1 -1 
aptrs: 0 3 0 0 3 
input match: -1 -1 -1 -1 -1 
output match: -1 -1 -1 -1 -1 
grants: -1 -1 4 -1 -1 
aptrs: 0 3 0 0 2 
input match: -1 -1 -1 -1 2 
output match: -1 -1 4 -1 -1 
grants: -1 -1 -1 -1 -1 
aptrs: 0 0 0 0 0 
input match: -1 -1 -1 -1 -1 
output match: -1 -1 -1 -1 -1 
grants: -1 -1 -1 -1 -1 
aptrs: 3 0 0 0 1 
input match: -1 -1 -1 -1 -1 
output match: -1 -1 -1 -1 -1 
grants: -1 -1 -1 -1 -1 
aptrs: 0 3 0 0 3 
input match: -1 -1 -1 -1 -1 
output match: -1 -1 -1 -1 -1 
grants: -1 -1 4 -1 -1 
aptrs: 0 3 0 0 3 
input match: -1 -1 -1 -1 2 
output match: -1 -1 4 -1 -1 
grants: -1 -1 -1 -1 -1 
aptrs: 0 0 0 0 0 
input match: -1 -1 -1 -1 -1 
output match: -1 -1 -1 -1 -1 
grants: -1 -1 -1 -1 -1 
aptrs: 3 0 0 0 1 
input match: -1 -1 -1 -1 -1 
output match: -1 -1 -1 -1 -1 
grants: -1 -1 -1 -1 -1 
aptrs: 0 3 0 0 3 
input match: -1 -1 -1 -1 -1 
output match: -1 -1 -1 -1 -1 
grants: -1 -1 -1 -1 4 
aptrs: 0 0 0 0 0 
input match: -1 -1 -1 -1 4 
output match: -1 -1 -1 -1 4 
grants: -1 -1 -1 -1 -1 
aptrs: 3 0 0 0 1 
input match: -1 -1 -1 -1 -1 
output match: -1 -1 -1 -1 -1 
grants: -1 -1 -1 -1 -1 
aptrs: 0 3 0 0 3 
input match: -1 -1 -1 -1 -1 
output match: -1 -1 -1 -1 -1 
grants: -1 -1 -1 -1 -1 
aptrs: 0 0 0 0 0 
input match: -1 -1 -1 -1 -1 
output match: -1 -1 -1 -1 -1 
grants: -1 -1 -1 -1 4 
aptrs: 0 0 0 0 0 
input match: -1 -1 -1 -1 4 
output match: -1 -1 -1 -1 4 
grants: -1 -1 -1 -1 -1 
aptrs: 3 0 0 0 1 
input match: -1 -1 -1 -1 -1 
output match: -1 -1 -1 -1 -1 
grants: -1 -1 -1 -1 -1 
aptrs: 0 3 0 0 3 
input match: -1 -1 -1 -1 -1 
output match: -1 -1 -1 -1 -1 
grants: -1 -1 -1 -1 -1 
aptrs: 0 3 0 0 3 
input match: -1 -1 -1 -1 -1 
output match: -1 -1 -1 -1 -1 
grants: -1 -1 -1 -1 -1 
aptrs: 0 0 0 0 0 
input match: -1 -1 -1 -1 -1 
output match: -1 -1 -1 -1 -1 
grants: -1 -1 -1 -1 4 
aptrs: 0 0 0 0 0 
input match: -1 -1 -1 -1 4 
output match: -1 -1 -1 -1 4 
grants: -1 -1 -1 -1 -1 
aptrs: 3 0 0 0 1 
input match: -1 -1 -1 -1 -1 
output match: -1 -1 -1 -1 -1 
grants: -1 -1 -1 -1 -1 
aptrs: 0 3 0 0 3 
input match: -1 -1 -1 -1 -1 
output match: -1 -1 -1 -1 -1 
grants: -1 -1 -1 -1 -1 
aptrs: 0 3 0 0 3 
input match: -1 -1 -1 -1 -1 
output match: -1 -1 -1 -1 -1 
grants: -1 -1 -1 -1 -1 
aptrs: 0 0 0 0 0 
input match: -1 -1 -1 -1 -1 
output match: -1 -1 -1 -1 -1 
grants: -1 -1 -1 -1 -1 
aptrs: 3 0 0 0 1 
input match: -1 -1 -1 -1 -1 
output match: -1 -1 -1 -1 -1 
grants: -1 -1 -1 -1 -1 
aptrs: 0 3 0 0 3 
input match: -1 -1 -1 -1 -1 
output match: -1 -1 -1 -1 -1 
grants: -1 -1 -1 -1 -1 
aptrs: 0 3 0 0 3 
input match: -1 -1 -1 -1 -1 
output match: -1 -1 -1 -1 -1 
grants: -1 -1 -1 -1 -1 
aptrs: 0 0 0 0 0 
input match: -1 -1 -1 -1 -1 
output match: -1 -1 -1 -1 -1 
grants: -1 -1 -1 -1 -1 
aptrs: 3 0 0 0 1 
input match: -1 -1 -1 -1 -1 
output match: -1 -1 -1 -1 -1 
grants: -1 -1 -1 -1 -1 
aptrs: 0 3 0 0 3 
input match: -1 -1 -1 -1 -1 
output match: -1 -1 -1 -1 -1 
grants: -1 -1 -1 -1 -1 
aptrs: 0 3 0 0 3 
input match: -1 -1 -1 -1 -1 
output match: -1 -1 -1 -1 -1 
grants: -1 -1 -1 -1 -1 
aptrs: 0 0 0 0 0 
input match: -1 -1 -1 -1 -1 
output match: -1 -1 -1 -1 -1 
grants: -1 -1 -1 -1 -1 
aptrs: 0 0 0 0 0 
input match: -1 -1 -1 -1 -1 
output match: -1 -1 -1 -1 -1 
grants: -1 -1 -1 -1 -1 
aptrs: 3 0 0 0 1 
input match: -1 -1 -1 -1 -1 
output match: -1 -1 -1 -1 -1 
grants: -1 -1 -1 -1 -1 
aptrs: 0 3 0 0 3 
input match: -1 -1 -1 -1 -1 
output match: -1 -1 -1 -1 -1 
grants: -1 -1 -1 -1 -1 
aptrs: 0 3 0 0 3 
input match: -1 -1 -1 -1 -1 
output match: -1 -1 -1 -1 -1 
grants: -1 -1 -1 -1 -1 
aptrs: 0 0 0 0 0 
input match: -1 -1 -1 -1 -1 
output match: -1 -1 -1 -1 -1 
grants: -1 -1 -1 -1 -1 
aptrs: 0 0 0 0 0 
input match: -1 -1 -1 -1 -1 
output match: -1 -1 -1 -1 -1 
grants: -1 -1 -1 -1 -1 
aptrs: 3 0 0 0 1 
input match: -1 -1 -1 -1 -1 
output match: -1 -1 -1 -1 -1 
grants: -1 -1 -1 -1 -1 
aptrs: 0 3 0 0 3 
input match: -1 -1 -1 -1 -1 
output match: -1 -1 -1 -1 -1 
grants: -1 -1 -1 -1 -1 
aptrs: 0 3 0 0 3 
input match: -1 -1 -1 -1 -1 
output match: -1 -1 -1 -1 -1 
grants: -1 -1 -1 -1 -1 
aptrs: 0 0 0 0 0 
input match: -1 -1 -1 -1 -1 
output match: -1 -1 -1 -1 -1 
grants: -1 -1 -1 -1 -1 
aptrs: 0 0 0 0 0 
input match: -1 -1 -1 -1 -1 
output match: -1 -1 -1 -1 -1 
grants: -1 -1 -1 -1 -1 
aptrs: 3 0 0 0 1 
input match: -1 -1 -1 -1 -1 
output match: -1 -1 -1 -1 -1 
grants: -1 -1 -1 -1 -1 
aptrs: 0 3 0 0 3 
input match: -1 -1 -1 -1 -1 
output match: -1 -1 -1 -1 -1 
grants: -1 -1 -1 -1 -1 
aptrs: 0 3 0 0 3 
input match: -1 -1 -1 -1 -1 
output match: -1 -1 -1 -1 -1 
grants: -1 -1 -1 -1 -1 
aptrs: 0 0 0 0 0 
input match: -1 -1 -1 -1 -1 
output match: -1 -1 -1 -1 -1 
grants: -1 -1 -1 -1 4 
aptrs: 0 0 0 0 0 
input match: -1 -1 -1 -1 4 
output match: -1 -1 -1 -1 4 
grants: -1 -1 -1 -1 -1 
aptrs: 3 0 0 0 1 
input match: -1 -1 -1 -1 -1 
output match: -1 -1 -1 -1 -1 
grants: -1 -1 -1 -1 -1 
aptrs: 0 3 0 0 3 
input match: -1 -1 -1 -1 -1 
output match: -1 -1 -1 -1 -1 
grants: -1 -1 -1 -1 -1 
aptrs: 0 3 0 0 3 
input match: -1 -1 -1 -1 -1 
output match: -1 -1 -1 -1 -1 
grants: -1 -1 -1 -1 -1 
aptrs: 0 0 0 0 0 
input match: -1 -1 -1 -1 -1 
output match: -1 -1 -1 -1 -1 
grants: -1 -1 -1 -1 4 
aptrs: 0 0 0 0 0 
input match: -1 -1 -1 -1 4 
output match: -1 -1 -1 -1 4 
grants: -1 -1 -1 -1 -1 
aptrs: 3 0 0 0 1 
input match: -1 -1 -1 -1 -1 
output match: -1 -1 -1 -1 -1 
grants: -1 -1 -1 -1 -1 
aptrs: 0 3 0 0 3 
input match: -1 -1 -1 -1 -1 
output match: -1 -1 -1 -1 -1 
grants: -1 -1 -1 -1 -1 
aptrs: 0 3 0 0 3 
input match: -1 -1 -1 -1 -1 
output match: -1 -1 -1 -1 -1 
grants: -1 -1 -1 -1 -1 
aptrs: 0 0 0 0 0 
input match: -1 -1 -1 -1 -1 
output match: -1 -1 -1 -1 -1 
grants: -1 -1 -1 -1 -1 
aptrs: 3 0 0 0 1 
input match: -1 -1 -1 -1 -1 
output match: -1 -1 -1 -1 -1 
grants: -1 -1 -1 -1 -1 
aptrs: 0 3 0 0 3 
input match: -1 -1 -1 -1 -1 
output match: -1 -1 -1 -1 -1 
grants: -1 -1 -1 -1 -1 
aptrs: 0 3 0 0 3 
input match: -1 -1 -1 -1 -1 
output match: -1 -1 -1 -1 -1 
grants: -1 -1 -1 -1 -1 
aptrs: 0 0 0 0 0 
input match: -1 -1 -1 -1 -1 
output match: -1 -1 -1 -1 -1 
grants: -1 -1 -1 -1 -1 
aptrs: 3 0 0 0 1 
input match: -1 -1 -1 -1 -1 
output match: -1 -1 -1 -1 -1 
grants: -1 -1 -1 -1 -1 
aptrs: 0 3 0 0 3 
input match: -1 -1 -1 -1 -1 
output match: -1 -1 -1 -1 -1 
grants: -1 -1 -1 -1 -1 
aptrs: 0 3 0 0 3 
input match: -1 -1 -1 -1 -1 
output match: -1 -1 -1 -1 -1 
grants: -1 -1 -1 -1 -1 
aptrs: 0 0 0 0 0 
input match: -1 -1 -1 -1 -1 
output match: -1 -1 -1 -1 -1 
grants: -1 -1 -1 -1 -1 
aptrs: 3 0 0 0 1 
input match: -1 -1 -1 -1 -1 
output match: -1 -1 -1 -1 -1 
grants: -1 -1 -1 -1 -1 
aptrs: 0 3 0 0 3 
input match: -1 -1 -1 -1 -1 
output match: -1 -1 -1 -1 -1 
grants: -1 -1 -1 -1 -1 
aptrs: 0 3 0 0 3 
input match: -1 -1 -1 -1 -1 
output match: -1 -1 -1 -1 -1 
grants: -1 -1 -1 -1 -1 
aptrs: 0 0 0 0 0 
input match: -1 -1 -1 -1 -1 
output match: -1 -1 -1 -1 -1 
grants: -1 -1 -1 -1 -1 
aptrs: 3 0 0 0 1 
input match: -1 -1 -1 -1 -1 
output match: -1 -1 -1 -1 -1 
grants: -1 -1 -1 -1 -1 
aptrs: 0 3 0 0 3 
input match: -1 -1 -1 -1 -1 
output match: -1 -1 -1 -1 -1 
grants: -1 -1 -1 -1 -1 
aptrs: 0 3 0 0 3 
input match: -1 -1 -1 -1 -1 
output match: -1 -1 -1 -1 -1 
grants: -1 -1 -1 -1 -1 
aptrs: 0 0 0 0 0 
input match: -1 -1 -1 -1 -1 
output match: -1 -1 -1 -1 -1 
grants: -1 -1 -1 -1 -1 
aptrs: 3 0 0 0 1 
input match: -1 -1 -1 -1 -1 
output match: -1 -1 -1 -1 -1 
grants: -1 -1 -1 -1 -1 
aptrs: 0 3 0 0 3 
input match: -1 -1 -1 -1 -1 
output match: -1 -1 -1 -1 -1 
grants: -1 -1 -1 -1 -1 
aptrs: 0 3 0 0 3 
input match: -1 -1 -1 -1 -1 
output match: -1 -1 -1 -1 -1 
grants: -1 -1 -1 -1 -1 
aptrs: 0 0 0 0 0 
input match: -1 -1 -1 -1 -1 
output match: -1 -1 -1 -1 -1 
grants: -1 -1 -1 -1 -1 
aptrs: 3 0 0 0 1 
input match: -1 -1 -1 -1 -1 
output match: -1 -1 -1 -1 -1 
grants: -1 -1 -1 -1 -1 
aptrs: 0 3 0 0 3 
input match: -1 -1 -1 -1 -1 
output match: -1 -1 -1 -1 -1 
grants: -1 -1 -1 -1 -1 
aptrs: 0 3 0 0 3 
input match: -1 -1 -1 -1 -1 
output match: -1 -1 -1 -1 -1 
grants: -1 -1 -1 -1 3 
aptrs: 0 0 0 0 0 
input match: -1 -1 -1 4 -1 
output match: -1 -1 -1 -1 3 
grants: -1 -1 -1 -1 -1 
aptrs: 3 0 0 0 1 
input match: -1 -1 -1 -1 -1 
output match: -1 -1 -1 -1 -1 
grants: -1 -1 -1 -1 -1 
aptrs: 0 3 0 0 3 
input match: -1 -1 -1 -1 -1 
output match: -1 -1 -1 -1 -1 
grants: -1 -1 -1 -1 -1 
aptrs: 0 3 0 0 3 
input match: -1 -1 -1 -1 -1 
output match: -1 -1 -1 -1 -1 
grants: -1 -1 -1 -1 3 
aptrs: 0 0 0 0 0 
input match: -1 -1 -1 4 -1 
output match: -1 -1 -1 -1 3 
grants: -1 -1 -1 -1 -1 
aptrs: 3 0 0 0 1 
input match: -1 -1 -1 -1 -1 
output match: -1 -1 -1 -1 -1 
grants: -1 -1 -1 -1 -1 
aptrs: 0 3 0 0 3 
input match: -1 -1 -1 -1 -1 
output match: -1 -1 -1 -1 -1 
grants: -1 -1 -1 -1 -1 
aptrs: 0 3 0 0 3 
input match: -1 -1 -1 -1 -1 
output match: -1 -1 -1 -1 -1 
grants: -1 -1 -1 -1 3 
aptrs: 0 0 0 0 0 
input match: -1 -1 -1 4 -1 
output match: -1 -1 -1 -1 3 
grants: -1 -1 -1 -1 -1 
aptrs: 3 0 0 0 1 
input match: -1 -1 -1 -1 -1 
output match: -1 -1 -1 -1 -1 
grants: -1 -1 -1 -1 -1 
aptrs: 0 3 0 0 3 
input match: -1 -1 -1 -1 -1 
output match: -1 -1 -1 -1 -1 
grants: -1 -1 -1 -1 -1 
aptrs: 0 3 0 0 3 
input match: -1 -1 -1 -1 -1 
output match: -1 -1 -1 -1 -1 
grants: -1 -1 -1 -1 -1 
aptrs: 3 0 0 0 1 
input match: -1 -1 -1 -1 -1 
output match: -1 -1 -1 -1 -1 
grants: -1 -1 -1 -1 -1 
aptrs: 0 3 0 0 3 
input match: -1 -1 -1 -1 -1 
output match: -1 -1 -1 -1 -1 
grants: -1 -1 -1 -1 -1 
aptrs: 0 3 0 0 3 
input match: -1 -1 -1 -1 -1 
output match: -1 -1 -1 -1 -1 
grants: -1 -1 -1 -1 -1 
aptrs: 3 0 0 0 1 
input match: -1 -1 -1 -1 -1 
output match: -1 -1 -1 -1 -1 
grants: -1 -1 -1 -1 -1 
aptrs: 0 3 0 0 3 
input match: -1 -1 -1 -1 -1 
output match: -1 -1 -1 -1 -1 
grants: -1 -1 4 -1 -1 
aptrs: 0 3 0 0 3 
input match: -1 -1 -1 -1 2 
output match: -1 -1 4 -1 -1 
grants: -1 -1 -1 -1 -1 
aptrs: 3 0 0 0 1 
input match: -1 -1 -1 -1 -1 
output match: -1 -1 -1 -1 -1 
grants: -1 -1 -1 -1 -1 
aptrs: 0 3 0 0 3 
input match: -1 -1 -1 -1 -1 
output match: -1 -1 -1 -1 -1 
grants: -1 -1 4 -1 -1 
aptrs: 0 3 0 0 3 
input match: -1 -1 -1 -1 2 
output match: -1 -1 4 -1 -1 
grants: -1 -1 -1 -1 -1 
aptrs: 3 0 0 0 1 
input match: -1 -1 -1 -1 -1 
output match: -1 -1 -1 -1 -1 
grants: -1 -1 -1 -1 -1 
aptrs: 0 3 0 0 3 
input match: -1 -1 -1 -1 -1 
output match: -1 -1 -1 -1 -1 
grants: -1 -1 -1 -1 -1 
aptrs: 3 0 0 0 1 
input match: -1 -1 -1 -1 -1 
output match: -1 -1 -1 -1 -1 
grants: -1 -1 -1 -1 -1 
aptrs: 0 3 0 0 3 
input match: -1 -1 -1 -1 -1 
output match: -1 -1 -1 -1 -1 
grants: -1 -1 -1 -1 3 
aptrs: 0 0 0 0 0 
input match: -1 -1 -1 4 -1 
output match: -1 -1 -1 -1 3 
grants: -1 -1 -1 -1 -1 
aptrs: 3 0 0 0 1 
input match: -1 -1 -1 -1 -1 
output match: -1 -1 -1 -1 -1 
grants: -1 -1 -1 -1 -1 
aptrs: 0 3 0 0 3 
input match: -1 -1 -1 -1 -1 
output match: -1 -1 -1 -1 -1 
grants: -1 -1 -1 -1 3 
aptrs: 0 0 0 0 0 
input match: -1 -1 -1 4 -1 
output match: -1 -1 -1 -1 3 
grants: -1 -1 -1 -1 -1 
aptrs: 3 0 0 0 1 
input match: -1 -1 -1 -1 -1 
output match: -1 -1 -1 -1 -1 
grants: -1 -1 -1 -1 -1 
aptrs: 0 3 0 0 3 
input match: -1 -1 -1 -1 -1 
output match: -1 -1 -1 -1 -1 
grants: -1 -1 -1 -1 -1 
aptrs: 3 0 0 0 1 
input match: -1 -1 -1 -1 -1 
output match: -1 -1 -1 -1 -1 
grants: -1 -1 -1 -1 -1 
aptrs: 0 3 0 0 3 
input match: -1 -1 -1 -1 -1 
output match: -1 -1 -1 -1 -1 
grants: -1 -1 -1 -1 -1 
aptrs: 3 0 0 0 1 
input match: -1 -1 -1 -1 -1 
output match: -1 -1 -1 -1 -1 
grants: -1 -1 -1 -1 -1 
aptrs: 0 3 0 0 3 
input match: -1 -1 -1 -1 -1 
output match: -1 -1 -1 -1 -1 
grants: -1 -1 -1 -1 -1 
aptrs: 3 0 0 0 1 
input match: -1 -1 -1 -1 -1 
output match: -1 -1 -1 -1 -1 
grants: -1 -1 1 -1 -1 
aptrs: 0 3 0 0 3 
input match: -1 2 -1 -1 -1 
output match: -1 -1 1 -1 -1 
grants: -1 -1 -1 -1 -1 
aptrs: 3 0 0 0 1 
input match: -1 -1 -1 -1 -1 
output match: -1 -1 -1 -1 -1 
grants: -1 -1 1 -1 -1 
aptrs: 0 3 0 0 3 
input match: -1 2 -1 -1 -1 
output match: -1 -1 1 -1 -1 
grants: -1 -1 -1 -1 -1 
aptrs: 3 0 0 0 1 
input match: -1 -1 -1 -1 -1 
output match: -1 -1 -1 -1 -1 
grants: -1 -1 1 -1 -1 
aptrs: 0 3 0 0 3 
input match: -1 2 -1 -1 -1 
output match: -1 -1 1 -1 -1 
grants: -1 -1 -1 -1 -1 
aptrs: 3 0 0 0 1 
input match: -1 -1 -1 -1 -1 
output match: -1 -1 -1 -1 -1 
grants: -1 -1 -1 -1 -1 
aptrs: 3 0 0 0 1 
input match: -1 -1 -1 -1 -1 
output match: -1 -1 -1 -1 -1 
grants: -1 -1 -1 -1 3 
aptrs: 0 0 0 0 0 
input match: -1 -1 -1 4 -1 
output match: -1 -1 -1 -1 3 
grants: 4 -1 -1 -1 -1 
aptrs: 3 0 0 0 1 
input match: -1 -1 -1 -1 0 
output match: 4 -1 -1 -1 -1 
grants: -1 -1 -1 -1 3 
aptrs: 0 0 0 0 0 
input match: -1 -1 -1 4 -1 
output match: -1 -1 -1 -1 3 
grants: 4 -1 -1 -1 -1 
aptrs: 3 0 0 0 1 
input match: -1 -1 -1 -1 0 
output match: 4 -1 -1 -1 -1 
grants: -1 -1 -1 -1 3 
aptrs: 0 0 0 0 0 
input match: -1 -1 -1 4 -1 
output match: -1 -1 -1 -1 3 
grants: -1 -1 -1 -1 -1 
aptrs: 0 3 0 0 3 
input match: -1 -1 -1 -1 -1 
output match: -1 -1 -1 -1 -1 
grants: -1 -1 1 -1 -1 
aptrs: 0 3 0 0 3 
input match: -1 2 -1 -1 -1 
output match: -1 -1 1 -1 -1 
grants: -1 -1 1 -1 -1 
aptrs: 0 3 0 0 3 
input match: -1 2 -1 -1 -1 
output match: -1 -1 1 -1 -1 
grants: -1 -1 -1 -1 3 
aptrs: 0 0 0 0 0 
input match: -1 -1 -1 4 -1 
output match: -1 -1 -1 -1 3 
grants: -1 -1 -1 -1 3 
aptrs: 0 0 0 0 0 
input match: -1 -1 -1 4 -1 
output match: -1 -1 -1 -1 3 
Time taken is 6091 cycles
====== Overall Traffic Statistics ======
====== Traffic class 0 ======
Packet latency average = 3482.36 (1 samples)
	minimum = 2286 (1 samples)
	maximum = 4833 (1 samples)
Network latency average = 29.2063 (1 samples)
	minimum = 14 (1 samples)
	maximum = 95 (1 samples)
Flit latency average = 19.6586 (1 samples)
	minimum = 6 (1 samples)
	maximum = 87 (1 samples)
Fragmentation average = 5 (1 samples)
	minimum = 5 (1 samples)
	maximum = 5 (1 samples)
Injected packet rate average = 0.0425 (1 samples)
	minimum = 0.0403333 (1 samples)
	maximum = 0.044 (1 samples)
Accepted packet rate average = 0.0423333 (1 samples)
	minimum = 0.0406667 (1 samples)
	maximum = 0.0436667 (1 samples)
Injected flit rate average = 0.169667 (1 samples)
	minimum = 0.160667 (1 samples)
	maximum = 0.176 (1 samples)
Accepted flit rate average = 0.169417 (1 samples)
	minimum = 0.163 (1 samples)
	maximum = 0.174667 (1 samples)
Injected packet size average = 3.99216 (1 samples)
Accepted packet size average = 4.00197 (1 samples)
Hops average = 1.95285 (1 samples)
Total run time 0.161662
